/*---------------------------------------------------------------------------*\
| =========                 |                                                 |
| \\      /  F ield         | OpenFOAM: The Open Source CFD Toolbox           |
|  \\    /   O peration     | Version:  2012                                  |
|   \\  /    A nd           | Website:  www.openfoam.com                      |
|    \\/     M anipulation  |                                                 |
\*---------------------------------------------------------------------------*/
Build  : _e91649cfd8-20210420 OPENFOAM=2012 patch=210414
Arch   : "LSB;label=32;scalar=64"
Exec   : pimpleFoam
Date   : May 31 2021
Time   : 08:09:23
Host   : scw-a5ymyf
PID    : 5568
I/O    : uncollated
Case   : /home/julian/software/mbdyn-adapter/oneBladeRotor_simplified_parallel/fluid
nProcs : 1
trapFpe: Floating point exception trapping enabled (FOAM_SIGFPE).
fileModificationChecking : Monitoring run-time modified files using timeStampMaster (fileModificationSkew 5, maxFileModificationPolls 20)
allowSystemOperations : Allowing user-supplied system call operations

// * * * * * * * * * * * * * * * * * * * * * * * * * * * * * * * * * * * * * //
Create time

Create mesh for time = 0

Selecting dynamicFvMesh dynamicMotionSolverFvMesh
Selecting motion solver: displacementLaplacian
Applying solid body motion to entire mesh
Selecting motion diffusion: uniform

PIMPLE: max iterations = 30
    field "(U|k|epsilon|omega)"	: relTol 0, tolerance 0.01
    field p	: relTol 0, tolerance 0.01

Reading field p

Reading field U

Reading/calculating face flux field phi

Selecting incompressible transport model Newtonian
Selecting turbulence model type RAS
Selecting RAS turbulence model kOmegaSST
Selecting patchDistMethod meshWave
RAS
{
    RASModel        kOmegaSST;
    turbulence      on;
    printCoeffs     on;
    alphaK1         0.85;
    alphaK2         1;
    alphaOmega1     0.5;
    alphaOmega2     0.856;
    gamma1          0.5555555555555556;
    gamma2          0.44;
    beta1           0.075;
    beta2           0.0828;
    betaStar        0.09;
    a1              0.31;
    b1              1;
    c1              10;
    F3              false;
    decayControl    false;
    kInf            0;
    omegaInf        0;
}

No MRF models present

No finite volume options present
Constructing face velocity Uf

Courant Number mean: 0 max: 0

Starting time loop

---[preciceAdapter] The preciceAdapter was loaded.
---[preciceAdapter] Reading preciceDict...
---[precice] [0m This is preCICE version 2.2.0
---[precice] [0m Revision info: v2.2.0
---[precice] [0m Configuration: Release (Debug and Trace log unavailable)
---[precice] [0m Configuring preCICE with configuration "../precice-config.xml"
---[precice] [0m I am participant "Fluid"
---[precice] [0m Setting up master communication to coupling partner/s
---[precice] [0m Masters are connected
---[precice] [0m Setting up preliminary slaves communication to coupling partner/s
---[precice] [0m Prepare partition for mesh Fluid-Mesh-Down
---[precice] [0m Prepare partition for mesh Fluid-Mesh-Up
---[precice] [0m Receive global mesh Solid-Mesh
---[precice] [0m Setting up slaves communication to coupling partner/s
---[precice] [0m Slaves are connected
---[precice] [0m iteration: 1, time-window: 1, time: 0 of 10, time-window-size: 0.01, max-timestep-length: 0.01, ongoing: yes, time-window-complete: no, 
---[precice] [0m Compute write mapping from mesh "Fluid-Mesh-Up" to mesh "Solid-Mesh".
---[precice] [0m Mapping distance min:0 max:0.00900144 avg: 0.00574251 var: 8.71335e-06 cnt: 40
---[precice] [0m Compute write mapping from mesh "Fluid-Mesh-Down" to mesh "Solid-Mesh".
---[precice] [0m Mapping distance min:0 max:0.00900144 avg: 0.00574251 var: 8.71335e-06 cnt: 40
---[precice] [0m initializeData is skipped since no data has to be initialized.
---[preciceAdapter] preCICE was configured and initialized
--> FOAM Warning : 
    From void adapterInfo(std::string, std::string)
    in file Utilities.C at line 17
    [36mWarning in the preCICE adapter: [0m
You have enabled 'runTimeModifiable' in the controlDict. The preciceAdapter does not yet fully support this functionality when 'adjustableTimestep' is not enabled. If you modify the 'deltaT' in the controlDict during the simulation, it will not be updated.

---[preciceAdapter] Setting the solver's endTime to infinity to prevent early exits. Only preCICE will control the simulation's endTime. Any functionObject's end() method will be triggered by the adapter. You may disable this behavior in the adapter's configuration.
Courant Number mean: 0 max: 0
Time = 0.01

PIMPLE: iteration 1
DICPCG:  Solving for cellDisplacementx, Initial residual = 0, Final residual = 0, No Iterations 0
DICPCG:  Solving for cellDisplacementy, Initial residual = 0, Final residual = 0, No Iterations 0
DICPCG:  Solving for pcorr, Initial residual = 2.252922644611768e-12, Final residual = 1.881868018464973e-12, No Iterations 1
DICPCG:  Solving for pcorr, Initial residual = 1.881868018457057e-12, Final residual = 2.12411617348157e-12, No Iterations 1
time step continuity errors : sum local = 3.769061107353189e-37, global = -4.684452769628861e-38, cumulative = -4.684452769628861e-38
DILUPBiCGStab:  Solving for Ux, Initial residual = 0.9991616405609788, Final residual = 1.538568520676566e-07, No Iterations 3
DILUPBiCGStab:  Solving for Uy, Initial residual = 0.9953041831411008, Final residual = 1.711860148275323e-07, No Iterations 3
DICPBiCGStab:  Solving for p, Initial residual = 0.9983934361323845, Final residual = 0.009431861419766574, No Iterations 3
DICPBiCGStab:  Solving for p, Initial residual = 0.03767424618579268, Final residual = 0.004368658691121761, No Iterations 1
time step continuity errors : sum local = 9.666209510410953e-25, global = -4.728820567295535e-38, cumulative = -9.413273336924396e-38
DICPBiCGStab:  Solving for p, Initial residual = 0.1269188775316629, Final residual = 0.008294011377788093, No Iterations 1
DICPBiCGStab:  Solving for p, Initial residual = 0.01352349689486802, Final residual = 0.003320320823968897, No Iterations 1
time step continuity errors : sum local = 6.951597072844316e-25, global = -8.814455931383492e-38, cumulative = -1.822772926830789e-37
DILUPBiCGStab:  Solving for omega, Initial residual = 1.03366764179064e-05, Final residual = 9.33546726050078e-10, No Iterations 1
DILUPBiCGStab:  Solving for k, Initial residual = 0.9999999999982599, Final residual = 4.90114016483338e-07, No Iterations 1
PIMPLE: iteration 2
DILUPBiCGStab:  Solving for Ux, Initial residual = 0.005132061420593645, Final residual = 4.780892617966993e-07, No Iterations 1
DILUPBiCGStab:  Solving for Uy, Initial residual = 0.0005324116810618354, Final residual = 1.207102400668282e-07, No Iterations 1
DICPBiCGStab:  Solving for p, Initial residual = 0.7981794466708919, Final residual = 0.008597068609560034, No Iterations 2
DICPBiCGStab:  Solving for p, Initial residual = 0.2309941264967245, Final residual = 0.007969270344361953, No Iterations 3
time step continuity errors : sum local = 6.747869263157024e-25, global = -9.836063652211743e-35, cumulative = -9.854291381480051e-35
DICPBiCGStab:  Solving for p, Initial residual = 0.4736235091116326, Final residual = 0.009864948511210812, No Iterations 2
DICPBiCGStab:  Solving for p, Initial residual = 0.05448347545119479, Final residual = 0.004151497826381586, No Iterations 6
time step continuity errors : sum local = 2.921187983047696e-25, global = -4.966299042522202e-31, cumulative = -4.96728447166035e-31
DILUPBiCGStab:  Solving for omega, Initial residual = 1.86546201443254e-06, Final residual = 1.356546752505568e-12, No Iterations 1
DILUPBiCGStab:  Solving for k, Initial residual = 0.0169064635655792, Final residual = 2.807948374309795e-11, No Iterations 1
PIMPLE: iteration 3
DILUPBiCGStab:  Solving for Ux, Initial residual = 0.001151348656422679, Final residual = 1.274438398418243e-07, No Iterations 1
DILUPBiCGStab:  Solving for Uy, Initial residual = 5.723296059573059e-05, Final residual = 1.414874453307912e-08, No Iterations 1
DICPBiCGStab:  Solving for p, Initial residual = 0.7345094034205903, Final residual = 0.008320952048538518, No Iterations 2
DICPBiCGStab:  Solving for p, Initial residual = 0.09001010066915884, Final residual = 0.008573549917947393, No Iterations 2
time step continuity errors : sum local = 3.995588417565822e-25, global = -2.040385866285485e-30, cumulative = -2.53711431345152e-30
DICPBiCGStab:  Solving for p, Initial residual = 0.3261479544120117, Final residual = 0.009387796971739732, No Iterations 2
DICPBiCGStab:  Solving for p, Initial residual = 0.01743141450479061, Final residual = 0.004934416466331699, No Iterations 3
time step continuity errors : sum local = 2.139687556180221e-25, global = -1.153548491660902e-29, cumulative = -1.407259923006054e-29
DILUPBiCGStab:  Solving for omega, Initial residual = 1.017586460411351e-06, Final residual = 1.291856277964003e-12, No Iterations 1
DILUPBiCGStab:  Solving for k, Initial residual = 0.003771970108011497, Final residual = 8.600424887522377e-12, No Iterations 1
PIMPLE: iteration 4
DILUPBiCGStab:  Solving for Ux, Initial residual = 6.904493510537383e-05, Final residual = 2.038208816625721e-08, No Iterations 1
DILUPBiCGStab:  Solving for Uy, Initial residual = 5.506498620860204e-05, Final residual = 1.836863823517693e-08, No Iterations 1
DICPBiCGStab:  Solving for p, Initial residual = 0.3525443424357935, Final residual = 0.008415597096405493, No Iterations 2
DICPBiCGStab:  Solving for p, Initial residual = 0.01649506252462508, Final residual = 0.007233846422004141, No Iterations 1
time step continuity errors : sum local = 2.60386240842539e-25, global = -1.751999490794151e-29, cumulative = -3.159259413800205e-29
DICPBiCGStab:  Solving for p, Initial residual = 0.09204847238273904, Final residual = 0.008125507027655248, No Iterations 1
DICPBiCGStab:  Solving for p, Initial residual = 0.008937550709010502, Final residual = 0.004864022010069584, No Iterations 2
time step continuity errors : sum local = 1.745488304850004e-25, global = -2.757726512337365e-29, cumulative = -5.916985926137571e-29
DILUPBiCGStab:  Solving for omega, Initial residual = 5.302998019841941e-07, Final residual = 1.205939066548549e-12, No Iterations 1
DILUPBiCGStab:  Solving for k, Initial residual = 0.001524667062599553, Final residual = 6.715172289628243e-12, No Iterations 1
PIMPLE: iteration 5
DILUPBiCGStab:  Solving for Ux, Initial residual = 3.598213144709861e-05, Final residual = 3.969746025269699e-10, No Iterations 2
DILUPBiCGStab:  Solving for Uy, Initial residual = 3.902877420640848e-05, Final residual = 4.16037036088609e-10, No Iterations 2
DICPBiCGStab:  Solving for p, Initial residual = 0.1563067696579889, Final residual = 0.009374224626844844, No Iterations 1
DICPBiCGStab:  Solving for p, Initial residual = 0.01210263690398655, Final residual = 0.004794083683207957, No Iterations 1
time step continuity errors : sum local = 2.064028176260684e-25, global = -3.560296733420542e-29, cumulative = -9.477282659558112e-29
DICPBiCGStab:  Solving for p, Initial residual = 0.01683300517003829, Final residual = 0.004158559792227616, No Iterations 1
DICPBiCGStab:  Solving for p, Initial residual = 0.004291599072283378, Final residual = 0.003029774884873112, No Iterations 1
time step continuity errors : sum local = 1.296116640790203e-25, global = -4.055779861726279e-29, cumulative = -1.353306252128439e-28
DILUPBiCGStab:  Solving for omega, Initial residual = 5.299798139448241e-07, Final residual = 4.952101429635173e-11, No Iterations 1
DILUPBiCGStab:  Solving for k, Initial residual = 0.00141329213178853, Final residual = 4.462290279355633e-10, No Iterations 1
PIMPLE: converged in 5 iterations
ExecutionTime = 0.25 s  ClockTime = 3 s

---[precice] [0m Time window completed
---[precice] [0m Compute read mapping from mesh "Solid-Mesh" to mesh "Fluid-Mesh-Up".
---[precice] [0m Mapping distance min:0 max:0.00900144 avg: 0.00574251 var: 8.71335e-06 cnt: 40
---[precice] [0m Compute read mapping from mesh "Solid-Mesh" to mesh "Fluid-Mesh-Down".
---[precice] [0m Mapping distance min:0 max:0.00900144 avg: 0.00574251 var: 8.71335e-06 cnt: 40
---[precice] [0m iteration: 1, time-window: 2, time: 0.01 of 10, time-window-size: 0.01, max-timestep-length: 0.01, ongoing: yes, time-window-complete: yes, 
Courant Number mean: 4.692574656781828e-23 max: 1.57528342219643e-16
Time = 0.02

PIMPLE: iteration 1
DICPCG:  Solving for cellDisplacementx, Initial residual = 0, Final residual = 0, No Iterations 0
DICPCG:  Solving for cellDisplacementy, Initial residual = 0, Final residual = 0, No Iterations 0
DICPCG:  Solving for pcorr, Initial residual = 0.422114963184095, Final residual = 0.8014104052798495, No Iterations 1
DICPCG:  Solving for pcorr, Initial residual = 0.4473228636993061, Final residual = 0.2413077001436804, No Iterations 1
time step continuity errors : sum local = 1.327450956018111e-25, global = -5.277529193214014e-29, cumulative = -1.88105917144984e-28
DILUPBiCGStab:  Solving for Ux, Initial residual = 0.0001230525103540783, Final residual = 3.326187737309668e-08, No Iterations 1
DILUPBiCGStab:  Solving for Uy, Initial residual = 0.0001474405080153056, Final residual = 2.98849393534e-08, No Iterations 1
DICPBiCGStab:  Solving for p, Initial residual = 0.2531282851043318, Final residual = 0.008831115475238054, No Iterations 3
DICPBiCGStab:  Solving for p, Initial residual = 0.01486432042812074, Final residual = 0.006531379494949631, No Iterations 1
time step continuity errors : sum local = 2.69066784298753e-25, global = -7.642991446509049e-29, cumulative = -2.645358316100745e-28
DICPBiCGStab:  Solving for p, Initial residual = 0.05523084762680435, Final residual = 0.007135524444558485, No Iterations 1
DICPBiCGStab:  Solving for p, Initial residual = 0.008041550082064758, Final residual = 0.004805281193953626, No Iterations 2
time step continuity errors : sum local = 2.008846737762724e-25, global = -7.724666219262301e-29, cumulative = -3.417824938026976e-28
DILUPBiCGStab:  Solving for omega, Initial residual = 1.131767256667601e-06, Final residual = 5.911390188387892e-12, No Iterations 1
DILUPBiCGStab:  Solving for k, Initial residual = 0.01094106009027056, Final residual = 1.135288491028068e-10, No Iterations 1
PIMPLE: iteration 2
DILUPBiCGStab:  Solving for Ux, Initial residual = 3.474997219624726e-05, Final residual = 1.33149731453168e-08, No Iterations 1
DILUPBiCGStab:  Solving for Uy, Initial residual = 3.98746498062951e-05, Final residual = 1.315177553775284e-08, No Iterations 1
DICPBiCGStab:  Solving for p, Initial residual = 0.05827119006971441, Final residual = 0.007968088124338212, No Iterations 1
DICPBiCGStab:  Solving for p, Initial residual = 0.008017959907924184, Final residual = 0.005138869017715969, No Iterations 1
time step continuity errors : sum local = 2.345015404936836e-25, global = -8.381614537863065e-29, cumulative = -4.255986391813282e-28
DICPBiCGStab:  Solving for p, Initial residual = 0.01431405133483042, Final residual = 0.004460386773325965, No Iterations 1
DICPBiCGStab:  Solving for p, Initial residual = 0.004486361180877756, Final residual = 0.003410147243015277, No Iterations 1
time step continuity errors : sum local = 1.556571618044929e-25, global = -7.756071900831236e-29, cumulative = -5.031593581896405e-28
DILUPBiCGStab:  Solving for omega, Initial residual = 5.443345246620414e-07, Final residual = 1.17112732032978e-12, No Iterations 1
DILUPBiCGStab:  Solving for k, Initial residual = 0.003949482153332506, Final residual = 2.679827638181667e-11, No Iterations 1
PIMPLE: iteration 3
DILUPBiCGStab:  Solving for Ux, Initial residual = 2.034069885794508e-05, Final residual = 2.661893542993029e-10, No Iterations 2
DILUPBiCGStab:  Solving for Uy, Initial residual = 2.326403412486104e-05, Final residual = 2.937311537152984e-10, No Iterations 2
DICPBiCGStab:  Solving for p, Initial residual = 0.1559428381800252, Final residual = 0.006888447498496678, No Iterations 2
DICPBiCGStab:  Solving for p, Initial residual = 0.01190271635095165, Final residual = 0.005907472963992138, No Iterations 1
time step continuity errors : sum local = 2.965968086267195e-25, global = -7.356823815069799e-29, cumulative = -5.767275963403385e-28
DICPBiCGStab:  Solving for p, Initial residual = 0.01398980274784267, Final residual = 0.004818210797871844, No Iterations 1
DICPBiCGStab:  Solving for p, Initial residual = 0.004927254736390977, Final residual = 0.003736916337092334, No Iterations 1
time step continuity errors : sum local = 1.849722126587939e-25, global = -5.846566821520448e-29, cumulative = -6.35193264555543e-28
DILUPBiCGStab:  Solving for omega, Initial residual = 5.325780192897165e-07, Final residual = 2.315751667469938e-11, No Iterations 1
DILUPBiCGStab:  Solving for k, Initial residual = 0.003447025440369473, Final residual = 7.72069207437647e-10, No Iterations 1
PIMPLE: converged in 3 iterations
ExecutionTime = 0.3 s  ClockTime = 3 s

---[precice] [0m Time window completed
---[precice] [0m iteration: 1, time-window: 3, time: 0.02 of 10, time-window-size: 0.01, max-timestep-length: 0.01, ongoing: yes, time-window-complete: yes, 
Courant Number mean: 9.123971681660849e-23 max: 2.906795788230373e-16
Time = 0.03

PIMPLE: iteration 1
DICPCG:  Solving for cellDisplacementx, Initial residual = 1, Final residual = 9.187985407329993e-07, No Iterations 88
DICPCG:  Solving for cellDisplacementy, Initial residual = 0.9999999999999793, Final residual = 9.030036996861188e-07, No Iterations 88
DICPCG:  Solving for pcorr, Initial residual = 1, Final residual = 1.425994719105074, No Iterations 1
DICPCG:  Solving for pcorr, Initial residual = 0.4305905023657584, Final residual = 0.4950552706953811, No Iterations 5
time step continuity errors : sum local = 9.092347407774948e-09, global = 1.283698536843161e-13, cumulative = 1.283698536843155e-13
DILUPBiCGStab:  Solving for Ux, Initial residual = 0.9999999933642949, Final residual = 6.762576938493948e-07, No Iterations 2
DILUPBiCGStab:  Solving for Uy, Initial residual = 0.9999998190122271, Final residual = 9.273140491779168e-07, No Iterations 2
DICPBiCGStab:  Solving for p, Initial residual = 0.9999999999999968, Final residual = 0.01367426289830008, No Iterations 25
DICPBiCGStab:  Solving for p, Initial residual = 0.4705650366241897, Final residual = 0.009096484781257836, No Iterations 4
time step continuity errors : sum local = 1.702429121975323e-10, global = 1.898375109986747e-12, cumulative = 2.026744963671062e-12
DICPBiCGStab:  Solving for p, Initial residual = 0.1529738073812592, Final residual = 0.009962671061988781, No Iterations 6
DICPBiCGStab:  Solving for p, Initial residual = 0.03869320775029609, Final residual = 0.004962673992618272, No Iterations 4
time step continuity errors : sum local = 1.253787690091221e-10, global = 2.54873395800337e-12, cumulative = 4.575478921674432e-12
DILUPBiCGStab:  Solving for omega, Initial residual = 1.169604225707103e-06, Final residual = 2.022628010706003e-12, No Iterations 1
DILUPBiCGStab:  Solving for k, Initial residual = 0.006062216434991358, Final residual = 4.075873147320759e-11, No Iterations 1
PIMPLE: iteration 2
DILUPBiCGStab:  Solving for Ux, Initial residual = 0.0002079676276469546, Final residual = 1.358795746576205e-08, No Iterations 1
DILUPBiCGStab:  Solving for Uy, Initial residual = 0.01109182600656221, Final residual = 6.739390458792772e-07, No Iterations 1
DICPBiCGStab:  Solving for p, Initial residual = 0.1876828672823486, Final residual = 0.007814891611058448, No Iterations 11
DICPBiCGStab:  Solving for p, Initial residual = 0.1006118627102773, Final residual = 0.009424112425794164, No Iterations 2
time step continuity errors : sum local = 2.130996732095821e-10, global = 2.762580837633195e-12, cumulative = 7.338059759307627e-12
DICPBiCGStab:  Solving for p, Initial residual = 0.03885905848721239, Final residual = 0.009657185185626747, No Iterations 3
DICPBiCGStab:  Solving for p, Initial residual = 0.01889365362654271, Final residual = 0.00485274259445679, No Iterations 4
time step continuity errors : sum local = 1.009670099030779e-10, global = 2.645464918704113e-12, cumulative = 9.983524678011739e-12
DILUPBiCGStab:  Solving for omega, Initial residual = 5.509849151741351e-07, Final residual = 7.092159542204277e-14, No Iterations 1
DILUPBiCGStab:  Solving for k, Initial residual = 0.002630794182374609, Final residual = 3.545205748767992e-12, No Iterations 1
PIMPLE: iteration 3
DILUPBiCGStab:  Solving for Ux, Initial residual = 4.845717914215243e-05, Final residual = 7.307443108339382e-10, No Iterations 1
DILUPBiCGStab:  Solving for Uy, Initial residual = 0.002094920871551659, Final residual = 4.109230228455064e-08, No Iterations 1
DICPBiCGStab:  Solving for p, Initial residual = 0.06945932575684916, Final residual = 0.009790259154554712, No Iterations 9
DICPBiCGStab:  Solving for p, Initial residual = 0.0552709221214378, Final residual = 0.009475092756997172, No Iterations 2
time step continuity errors : sum local = 1.914930403627833e-10, global = 2.097665869855029e-12, cumulative = 1.208119054786677e-11
DICPBiCGStab:  Solving for p, Initial residual = 0.02306307512891404, Final residual = 0.008359686521553404, No Iterations 3
DICPBiCGStab:  Solving for p, Initial residual = 0.01530694807919557, Final residual = 0.004927059305930648, No Iterations 3
time step continuity errors : sum local = 9.571408662579924e-11, global = 1.927460345679922e-12, cumulative = 1.400865089354669e-11
DILUPBiCGStab:  Solving for omega, Initial residual = 2.676979479144889e-07, Final residual = 2.435051993104608e-14, No Iterations 1
DILUPBiCGStab:  Solving for k, Initial residual = 0.001225900479499553, Final residual = 7.902904893378107e-13, No Iterations 1
PIMPLE: iteration 4
DILUPBiCGStab:  Solving for Ux, Initial residual = 7.414354543538424e-06, Final residual = 1.80427941818936e-10, No Iterations 1
DILUPBiCGStab:  Solving for Uy, Initial residual = 0.0002914384315637123, Final residual = 4.393688749203674e-09, No Iterations 1
DICPBiCGStab:  Solving for p, Initial residual = 0.02240522734239507, Final residual = 0.00788034022605719, No Iterations 1
DICPBiCGStab:  Solving for p, Initial residual = 0.01131663048860981, Final residual = 0.007532545438130388, No Iterations 1
time step continuity errors : sum local = 1.45858332158862e-10, global = 1.91754412321145e-12, cumulative = 1.592619501675814e-11
DICPBiCGStab:  Solving for p, Initial residual = 0.01100293825159641, Final residual = 0.007312133927128929, No Iterations 1
DICPBiCGStab:  Solving for p, Initial residual = 0.008921913239335447, Final residual = 0.004083547586713155, No Iterations 3
time step continuity errors : sum local = 7.893335187331455e-11, global = 1.697578448389953e-12, cumulative = 1.762377346514809e-11
DILUPBiCGStab:  Solving for omega, Initial residual = 1.313188277527205e-07, Final residual = 1.269016952862186e-14, No Iterations 1
DILUPBiCGStab:  Solving for k, Initial residual = 0.0005904381041341873, Final residual = 4.588114264354714e-13, No Iterations 1
PIMPLE: iteration 5
DILUPBiCGStab:  Solving for Ux, Initial residual = 1.149886031497455e-05, Final residual = 8.667294052080547e-10, No Iterations 1
DILUPBiCGStab:  Solving for Uy, Initial residual = 0.0005327298420049804, Final residual = 4.21071175532645e-10, No Iterations 2
DICPBiCGStab:  Solving for p, Initial residual = 0.08604894803710081, Final residual = 0.005278703718207382, No Iterations 1
DICPBiCGStab:  Solving for p, Initial residual = 0.01036899998726381, Final residual = 0.004199372387967397, No Iterations 1
time step continuity errors : sum local = 1.025653525258903e-10, global = 1.554700955280936e-12, cumulative = 1.917847442042903e-11
DICPBiCGStab:  Solving for p, Initial residual = 0.006824949368790037, Final residual = 0.003404904499466885, No Iterations 1
DICPBiCGStab:  Solving for p, Initial residual = 0.004830859525313194, Final residual = 0.003073475334318902, No Iterations 1
time step continuity errors : sum local = 7.513441203757312e-11, global = 1.525119727708386e-12, cumulative = 2.070359414813741e-11
DILUPBiCGStab:  Solving for omega, Initial residual = 1.352489611920252e-07, Final residual = 2.775032555971685e-13, No Iterations 1
DILUPBiCGStab:  Solving for k, Initial residual = 0.0005792549586124564, Final residual = 1.136353638912658e-11, No Iterations 1
PIMPLE: converged in 5 iterations
ExecutionTime = 0.4 s  ClockTime = 3 s

---[precice] [0m Time window completed
---[precice] [0m iteration: 1, time-window: 4, time: 0.03 of 10, time-window-size: 0.01, max-timestep-length: 0.01, ongoing: yes, time-window-complete: yes, 
Courant Number mean: 4.523592992781259e-05 max: 0.09345963309363961
Time = 0.04

PIMPLE: iteration 1
DICPCG:  Solving for cellDisplacementx, Initial residual = 0.5839661179330148, Final residual = 8.358243726399615e-07, No Iterations 88
DICPCG:  Solving for cellDisplacementy, Initial residual = 0.8319746262205415, Final residual = 9.852373331318334e-07, No Iterations 89
DICPCG:  Solving for pcorr, Initial residual = 0.9999999999999978, Final residual = 1.321099153614346, No Iterations 1
DICPCG:  Solving for pcorr, Initial residual = 0.6123507108799925, Final residual = 0.2427625189471747, No Iterations 5
time step continuity errors : sum local = 4.286882190272204e-11, global = 1.532744214763116e-12, cumulative = 2.223633836290053e-11
DILUPBiCGStab:  Solving for Ux, Initial residual = 0.0004636075357895615, Final residual = 6.758422030364729e-09, No Iterations 1
DILUPBiCGStab:  Solving for Uy, Initial residual = 0.01702007303217667, Final residual = 2.782787804109307e-07, No Iterations 1
DICPBiCGStab:  Solving for p, Initial residual = 0.2552688741800824, Final residual = 0.009195550116716225, No Iterations 18
DICPBiCGStab:  Solving for p, Initial residual = 0.4430626126649568, Final residual = 0.009081902063094107, No Iterations 6
time step continuity errors : sum local = 1.094238254328192e-10, global = 1.127628258461444e-12, cumulative = 2.336396662136197e-11
DICPBiCGStab:  Solving for p, Initial residual = 0.1616417112689698, Final residual = 0.008638616990780397, No Iterations 11
DICPBiCGStab:  Solving for p, Initial residual = 0.07483161657411494, Final residual = 0.003300696107997045, No Iterations 5
time step continuity errors : sum local = 2.499943993090896e-11, global = -2.582195100079467e-13, cumulative = 2.310574711135403e-11
DILUPBiCGStab:  Solving for omega, Initial residual = 1.073037737866667e-06, Final residual = 1.088966094728599e-13, No Iterations 1
DILUPBiCGStab:  Solving for k, Initial residual = 0.004552564506837455, Final residual = 2.671819083960669e-12, No Iterations 1
PIMPLE: iteration 2
DILUPBiCGStab:  Solving for Ux, Initial residual = 2.014608983221771e-05, Final residual = 1.878868684934256e-10, No Iterations 1
DILUPBiCGStab:  Solving for Uy, Initial residual = 0.0008922285720403728, Final residual = 1.05877241206956e-08, No Iterations 1
DICPBiCGStab:  Solving for p, Initial residual = 0.154904129642916, Final residual = 0.009747218025857164, No Iterations 14
DICPBiCGStab:  Solving for p, Initial residual = 0.1608738551958683, Final residual = 0.009943934190460364, No Iterations 3
time step continuity errors : sum local = 7.475635237042421e-11, global = -4.945117046296751e-13, cumulative = 2.261123540672435e-11
DICPBiCGStab:  Solving for p, Initial residual = 0.0547840549289068, Final residual = 0.009777328472941535, No Iterations 6
DICPBiCGStab:  Solving for p, Initial residual = 0.02597528085385922, Final residual = 0.004656986968622336, No Iterations 4
time step continuity errors : sum local = 3.224968456385628e-11, global = -6.361359734359074e-13, cumulative = 2.197509943328845e-11
DILUPBiCGStab:  Solving for omega, Initial residual = 5.265193256327864e-07, Final residual = 2.960384763785289e-14, No Iterations 1
DILUPBiCGStab:  Solving for k, Initial residual = 0.002066502028541523, Final residual = 7.381885077245314e-13, No Iterations 1
PIMPLE: iteration 3
DILUPBiCGStab:  Solving for Ux, Initial residual = 1.818218448930576e-05, Final residual = 2.460354625540067e-10, No Iterations 1
DILUPBiCGStab:  Solving for Uy, Initial residual = 0.0007924544312133075, Final residual = 1.206959065809256e-08, No Iterations 1
DICPBiCGStab:  Solving for p, Initial residual = 0.03369642586934809, Final residual = 0.006926632009309382, No Iterations 1
DICPBiCGStab:  Solving for p, Initial residual = 0.007986455630792996, Final residual = 0.005687196925796767, No Iterations 1
time step continuity errors : sum local = 3.938912871543204e-11, global = -8.117846169939407e-13, cumulative = 2.11633148162945e-11
DICPBiCGStab:  Solving for p, Initial residual = 0.009803990916578497, Final residual = 0.005232266973154617, No Iterations 1
DICPBiCGStab:  Solving for p, Initial residual = 0.005437702309838231, Final residual = 0.004225573286352207, No Iterations 1
time step continuity errors : sum local = 2.926737898831549e-11, global = -8.390879255089377e-13, cumulative = 2.032422689078556e-11
DILUPBiCGStab:  Solving for omega, Initial residual = 2.613000453464774e-07, Final residual = 1.517154457065044e-14, No Iterations 1
DILUPBiCGStab:  Solving for k, Initial residual = 0.0009832541185175786, Final residual = 3.984159359177014e-13, No Iterations 1
PIMPLE: iteration 4
DILUPBiCGStab:  Solving for Ux, Initial residual = 9.574655503988505e-06, Final residual = 7.081034448766153e-10, No Iterations 1
DILUPBiCGStab:  Solving for Uy, Initial residual = 0.0004085315881449487, Final residual = 3.017075595809698e-10, No Iterations 2
DICPBiCGStab:  Solving for p, Initial residual = 0.2766788722514343, Final residual = 0.009293399043765277, No Iterations 4
DICPBiCGStab:  Solving for p, Initial residual = 0.01927962904660759, Final residual = 0.009823912546586766, No Iterations 2
time step continuity errors : sum local = 5.63302235504861e-11, global = -1.019587633333222e-12, cumulative = 1.930463925745234e-11
DICPBiCGStab:  Solving for p, Initial residual = 0.01472647112925956, Final residual = 0.009127970617790717, No Iterations 1
DICPBiCGStab:  Solving for p, Initial residual = 0.009582815971373122, Final residual = 0.004593136927230886, No Iterations 3
time step continuity errors : sum local = 2.649181149299686e-11, global = -1.078660910863538e-12, cumulative = 1.822597834658881e-11
DILUPBiCGStab:  Solving for omega, Initial residual = 2.638450869889838e-07, Final residual = 3.031615765868478e-13, No Iterations 1
DILUPBiCGStab:  Solving for k, Initial residual = 0.0009589715622568927, Final residual = 8.962598159873995e-12, No Iterations 1
PIMPLE: converged in 4 iterations
ExecutionTime = 0.49 s  ClockTime = 4 s

---[precice] [0m Time window completed
---[precice] [0m iteration: 1, time-window: 5, time: 0.04 of 10, time-window-size: 0.01, max-timestep-length: 0.01, ongoing: yes, time-window-complete: yes, 
Courant Number mean: 4.55919021504871e-05 max: 0.09312497066710913
Time = 0.05

PIMPLE: iteration 1
DICPCG:  Solving for cellDisplacementx, Initial residual = 0.3778469379551175, Final residual = 8.20114243052226e-07, No Iterations 84
DICPCG:  Solving for cellDisplacementy, Initial residual = 0.6372197886729127, Final residual = 9.157063336015432e-07, No Iterations 88
DICPCG:  Solving for pcorr, Initial residual = 0.9999999999999944, Final residual = 1.068160095108321, No Iterations 1
DICPCG:  Solving for pcorr, Initial residual = 0.5576293009517621, Final residual = 0.6345158188849763, No Iterations 5
time step continuity errors : sum local = 3.884528789165042e-11, global = -8.654952001834156e-13, cumulative = 1.736048314640539e-11
DILUPBiCGStab:  Solving for Ux, Initial residual = 2.4324440214451e-05, Final residual = 4.738256165617998e-11, No Iterations 1
DILUPBiCGStab:  Solving for Uy, Initial residual = 0.000992343844763889, Final residual = 2.50053937150805e-09, No Iterations 1
DICPBiCGStab:  Solving for p, Initial residual = 0.2610055800945588, Final residual = 0.009917202722509632, No Iterations 3
DICPBiCGStab:  Solving for p, Initial residual = 0.01177421437502921, Final residual = 0.007781186744580879, No Iterations 1
time step continuity errors : sum local = 4.996780390516522e-11, global = -2.794919091044476e-12, cumulative = 1.456556405536092e-11
DICPBiCGStab:  Solving for p, Initial residual = 0.04964045384521087, Final residual = 0.008039310555418665, No Iterations 1
DICPBiCGStab:  Solving for p, Initial residual = 0.008436614648586036, Final residual = 0.00420551918952203, No Iterations 3
time step continuity errors : sum local = 2.701558972397546e-11, global = -2.662405259332257e-12, cumulative = 1.190315879602866e-11
DILUPBiCGStab:  Solving for omega, Initial residual = 1.020324995276107e-06, Final residual = 5.627509152800764e-14, No Iterations 1
DILUPBiCGStab:  Solving for k, Initial residual = 0.003739930773923665, Final residual = 1.281965502131012e-12, No Iterations 1
PIMPLE: iteration 2
DILUPBiCGStab:  Solving for Ux, Initial residual = 8.696472988457235e-06, Final residual = 8.560306193328109e-11, No Iterations 1
DILUPBiCGStab:  Solving for Uy, Initial residual = 0.0003482826079466837, Final residual = 1.369748631373368e-10, No Iterations 2
DICPBiCGStab:  Solving for p, Initial residual = 0.2800892148115604, Final residual = 0.009811873645740838, No Iterations 2
DICPBiCGStab:  Solving for p, Initial residual = 0.01984785019029623, Final residual = 0.009759399093468084, No Iterations 2
time step continuity errors : sum local = 4.745687955484269e-11, global = -3.459805824738689e-12, cumulative = 8.44335297128997e-12
DICPBiCGStab:  Solving for p, Initial residual = 0.01549290576776436, Final residual = 0.008258638608766619, No Iterations 1
DICPBiCGStab:  Solving for p, Initial residual = 0.008992943986783613, Final residual = 0.004852444657240392, No Iterations 2
time step continuity errors : sum local = 2.347904195920474e-11, global = -3.363205194144404e-12, cumulative = 5.080147777145567e-12
DILUPBiCGStab:  Solving for omega, Initial residual = 1.006182791920364e-06, Final residual = 9.225161007619175e-13, No Iterations 1
DILUPBiCGStab:  Solving for k, Initial residual = 0.003481514057860736, Final residual = 2.353581277669004e-11, No Iterations 1
PIMPLE: converged in 2 iterations
ExecutionTime = 0.53 s  ClockTime = 4 s

---[precice] [0m Time window completed
---[precice] [0m iteration: 1, time-window: 6, time: 0.05 of 10, time-window-size: 0.01, max-timestep-length: 0.01, ongoing: yes, time-window-complete: yes, 
Courant Number mean: 4.546305394490324e-05 max: 0.09226671241598221
Time = 0.06

PIMPLE: iteration 1
DICPCG:  Solving for cellDisplacementx, Initial residual = 0.2753711014018909, Final residual = 9.846323045498001e-07, No Iterations 80
DICPCG:  Solving for cellDisplacementy, Initial residual = 0.4999361910831983, Final residual = 9.816383541502603e-07, No Iterations 85
DICPCG:  Solving for pcorr, Initial residual = 0.9999999999999939, Final residual = 0.9651972524595771, No Iterations 1
DICPCG:  Solving for pcorr, Initial residual = 0.5453946140245967, Final residual = 0.3422101371951724, No Iterations 5
time step continuity errors : sum local = 1.773851935318425e-11, global = -2.860282300477112e-12, cumulative = 2.219865476668454e-12
DILUPBiCGStab:  Solving for Ux, Initial residual = 1.732389975864445e-05, Final residual = 2.654999933824083e-11, No Iterations 1
DILUPBiCGStab:  Solving for Uy, Initial residual = 0.0007207780566831897, Final residual = 1.673060301125406e-09, No Iterations 1
DICPBiCGStab:  Solving for p, Initial residual = 0.2910472452227282, Final residual = 0.008977684010935384, No Iterations 2
DICPBiCGStab:  Solving for p, Initial residual = 0.01053356071904077, Final residual = 0.005956240578623377, No Iterations 1
time step continuity errors : sum local = 3.545651369274271e-11, global = -4.831118642313255e-12, cumulative = -2.611253165644801e-12
DICPBiCGStab:  Solving for p, Initial residual = 0.05116398205229158, Final residual = 0.005935730788720718, No Iterations 1
DICPBiCGStab:  Solving for p, Initial residual = 0.006548561431730116, Final residual = 0.004929397681234707, No Iterations 1
time step continuity errors : sum local = 2.935952471689178e-11, global = -4.7964257745108e-12, cumulative = -7.4076789401556e-12
DILUPBiCGStab:  Solving for omega, Initial residual = 9.738712151600373e-07, Final residual = 4.095981881078571e-14, No Iterations 1
DILUPBiCGStab:  Solving for k, Initial residual = 0.003226154018568095, Final residual = 9.347367377400906e-13, No Iterations 1
PIMPLE: iteration 2
DILUPBiCGStab:  Solving for Ux, Initial residual = 6.743077087200834e-06, Final residual = 6.018758723957823e-11, No Iterations 1
DILUPBiCGStab:  Solving for Uy, Initial residual = 0.0002984616156278944, Final residual = 9.032027779077079e-11, No Iterations 2
DICPBiCGStab:  Solving for p, Initial residual = 0.3003449981952415, Final residual = 0.009915994171147361, No Iterations 1
DICPBiCGStab:  Solving for p, Initial residual = 0.01898363215362263, Final residual = 0.008450768285787797, No Iterations 1
time step continuity errors : sum local = 3.623541797379416e-11, global = -5.498986698358158e-12, cumulative = -1.290666563851376e-11
DICPBiCGStab:  Solving for p, Initial residual = 0.01291658075121941, Final residual = 0.007677993724275992, No Iterations 1
DICPBiCGStab:  Solving for p, Initial residual = 0.00858534441887286, Final residual = 0.004401891166025088, No Iterations 3
time step continuity errors : sum local = 1.872858804636051e-11, global = -5.148918460009031e-12, cumulative = -1.805558409852279e-11
DILUPBiCGStab:  Solving for omega, Initial residual = 9.619746971206841e-07, Final residual = 7.163875273094534e-13, No Iterations 1
DILUPBiCGStab:  Solving for k, Initial residual = 0.003047618304462683, Final residual = 1.830089543255418e-11, No Iterations 1
PIMPLE: converged in 2 iterations
ExecutionTime = 0.59 s  ClockTime = 4 s

---[precice] [0m Time window completed
---[precice] [0m iteration: 1, time-window: 7, time: 0.06 of 10, time-window-size: 0.01, max-timestep-length: 0.01, ongoing: yes, time-window-complete: yes, 
Courant Number mean: 4.55029306327607e-05 max: 0.09139402372504854
Time = 0.07

PIMPLE: iteration 1
DICPCG:  Solving for cellDisplacementx, Initial residual = 0.2157445212999592, Final residual = 7.689754999560444e-07, No Iterations 80
DICPCG:  Solving for cellDisplacementy, Initial residual = 0.4059093262156366, Final residual = 8.590647554707029e-07, No Iterations 84
DICPCG:  Solving for pcorr, Initial residual = 0.9999999999999926, Final residual = 1.002425322727398, No Iterations 1
DICPCG:  Solving for pcorr, Initial residual = 0.5147832777668321, Final residual = 0.4195972194887134, No Iterations 5
time step continuity errors : sum local = 1.955132351383675e-11, global = -4.429945380946712e-12, cumulative = -2.24855294794695e-11
DILUPBiCGStab:  Solving for Ux, Initial residual = 1.35286523601915e-05, Final residual = 1.810214761390335e-11, No Iterations 1
DILUPBiCGStab:  Solving for Uy, Initial residual = 0.0006542191392077867, Final residual = 1.13305024561809e-09, No Iterations 1
DICPBiCGStab:  Solving for p, Initial residual = 0.3211806483712491, Final residual = 0.009018268586295812, No Iterations 2
DICPBiCGStab:  Solving for p, Initial residual = 0.01019034785537925, Final residual = 0.005612993823953442, No Iterations 1
time step continuity errors : sum local = 3.132203189699025e-11, global = -6.242974448556236e-12, cumulative = -2.872850392802574e-11
DICPBiCGStab:  Solving for p, Initial residual = 0.05418708649970514, Final residual = 0.005532422258590317, No Iterations 1
DICPBiCGStab:  Solving for p, Initial residual = 0.005892428055954575, Final residual = 0.004369736101361055, No Iterations 1
time step continuity errors : sum local = 2.439421351524531e-11, global = -6.189413758711321e-12, cumulative = -3.491791768673705e-11
DILUPBiCGStab:  Solving for omega, Initial residual = 9.340015893368173e-07, Final residual = 3.272877917457002e-14, No Iterations 1
DILUPBiCGStab:  Solving for k, Initial residual = 0.002866773406035259, Final residual = 7.615485961267499e-13, No Iterations 1
PIMPLE: iteration 2
DILUPBiCGStab:  Solving for Ux, Initial residual = 5.606328137851372e-06, Final residual = 5.299411602005313e-11, No Iterations 1
DILUPBiCGStab:  Solving for Uy, Initial residual = 0.0002744703491335769, Final residual = 5.848466031565848e-11, No Iterations 2
DICPBiCGStab:  Solving for p, Initial residual = 0.318308582782356, Final residual = 0.008478617299797955, No Iterations 1
DICPBiCGStab:  Solving for p, Initial residual = 0.0186014984118769, Final residual = 0.006372448393396191, No Iterations 1
time step continuity errors : sum local = 2.441344283761211e-11, global = -6.731406862548129e-12, cumulative = -4.164932454928519e-11
DICPBiCGStab:  Solving for p, Initial residual = 0.01166832957822033, Final residual = 0.005215833520471109, No Iterations 1
DICPBiCGStab:  Solving for p, Initial residual = 0.006054939737341188, Final residual = 0.004577147033445808, No Iterations 1
time step continuity errors : sum local = 1.739087267558164e-11, global = -6.668908695186395e-12, cumulative = -4.831823324447158e-11
DILUPBiCGStab:  Solving for omega, Initial residual = 9.241041711232024e-07, Final residual = 5.871811979020979e-13, No Iterations 1
DILUPBiCGStab:  Solving for k, Initial residual = 0.002735056317921829, Final residual = 1.560495884320215e-11, No Iterations 1
PIMPLE: converged in 2 iterations
ExecutionTime = 0.64 s  ClockTime = 4 s

---[precice] [0m Time window completed
---[precice] [0m iteration: 1, time-window: 8, time: 0.07 of 10, time-window-size: 0.01, max-timestep-length: 0.01, ongoing: yes, time-window-complete: yes, 
Courant Number mean: 4.547383547365505e-05 max: 0.09053091787159583
Time = 0.08

PIMPLE: iteration 1
DICPCG:  Solving for cellDisplacementx, Initial residual = 0.1770893236801082, Final residual = 8.755377744758517e-07, No Iterations 79
DICPCG:  Solving for cellDisplacementy, Initial residual = 0.3399804293916232, Final residual = 9.789336069192268e-07, No Iterations 82
DICPCG:  Solving for pcorr, Initial residual = 0.9999999999999919, Final residual = 1.078901260564406, No Iterations 1
DICPCG:  Solving for pcorr, Initial residual = 0.5894434109486334, Final residual = 0.6047946262339291, No Iterations 5
time step continuity errors : sum local = 2.442975259612493e-11, global = -5.823285688734726e-12, cumulative = -5.41415189332063e-11
DILUPBiCGStab:  Solving for Ux, Initial residual = 1.235709350452228e-05, Final residual = 1.633164590191159e-11, No Iterations 1
DILUPBiCGStab:  Solving for Uy, Initial residual = 0.000617339929215853, Final residual = 9.31408061139566e-10, No Iterations 1
DICPBiCGStab:  Solving for p, Initial residual = 0.3442463907892107, Final residual = 0.006838573554199805, No Iterations 2
DICPBiCGStab:  Solving for p, Initial residual = 0.009359006908344814, Final residual = 0.003980070135017065, No Iterations 1
time step continuity errors : sum local = 2.104044429524262e-11, global = -7.589231397461095e-12, cumulative = -6.17307503306674e-11
DICPBiCGStab:  Solving for p, Initial residual = 0.05721255605571989, Final residual = 0.004372886190138393, No Iterations 1
DICPBiCGStab:  Solving for p, Initial residual = 0.00500022525875781, Final residual = 0.00358318005305547, No Iterations 1
time step continuity errors : sum local = 1.895060473975518e-11, global = -7.548869497425495e-12, cumulative = -6.927961982809289e-11
DILUPBiCGStab:  Solving for omega, Initial residual = 8.995710209046474e-07, Final residual = 2.709826389198262e-14, No Iterations 1
DILUPBiCGStab:  Solving for k, Initial residual = 0.002599431571728841, Final residual = 6.638144456345549e-13, No Iterations 1
PIMPLE: iteration 2
DILUPBiCGStab:  Solving for Ux, Initial residual = 5.0338663111275e-06, Final residual = 4.919088563773964e-11, No Iterations 1
DILUPBiCGStab:  Solving for Uy, Initial residual = 0.0002580299860095662, Final residual = 5.292609275840913e-11, No Iterations 2
DICPBiCGStab:  Solving for p, Initial residual = 0.3331536997292564, Final residual = 0.009142713320554411, No Iterations 1
DICPBiCGStab:  Solving for p, Initial residual = 0.02083971943624114, Final residual = 0.007788869604443341, No Iterations 1
time step continuity errors : sum local = 2.716917223435596e-11, global = -8.016709891845625e-12, cumulative = -7.729632971993851e-11
DICPBiCGStab:  Solving for p, Initial residual = 0.01316324326318653, Final residual = 0.00672869554411961, No Iterations 1
DICPBiCGStab:  Solving for p, Initial residual = 0.007347629921314299, Final residual = 0.004817502129116706, No Iterations 2
time step continuity errors : sum local = 1.664652191525246e-11, global = -7.777984453281483e-12, cumulative = -8.507431417321999e-11
DILUPBiCGStab:  Solving for omega, Initial residual = 8.910577948119161e-07, Final residual = 4.902726636467249e-13, No Iterations 1
DILUPBiCGStab:  Solving for k, Initial residual = 0.002497721419180945, Final residual = 1.374702725935601e-11, No Iterations 1
PIMPLE: converged in 2 iterations
ExecutionTime = 0.6899999999999999 s  ClockTime = 4 s

---[precice] [0m Time window completed
---[precice] [0m iteration: 1, time-window: 9, time: 0.08 of 10, time-window-size: 0.01, max-timestep-length: 0.01, ongoing: yes, time-window-complete: yes, 
Courant Number mean: 4.548761090153898e-05 max: 0.0896141774151903
Time = 0.09

PIMPLE: iteration 1
DICPCG:  Solving for cellDisplacementx, Initial residual = 0.1501565520781347, Final residual = 7.274289447147819e-07, No Iterations 79
DICPCG:  Solving for cellDisplacementy, Initial residual = 0.2915400422238889, Final residual = 8.708089492117429e-07, No Iterations 81
DICPCG:  Solving for pcorr, Initial residual = 0.9999999999999919, Final residual = 1.01552612721247, No Iterations 1
DICPCG:  Solving for pcorr, Initial residual = 0.5462768565227188, Final residual = 0.5985545106570409, No Iterations 5
time step continuity errors : sum local = 2.445763718954221e-11, global = -6.834856704249595e-12, cumulative = -9.190917087746958e-11
DILUPBiCGStab:  Solving for Ux, Initial residual = 1.008493709418276e-05, Final residual = 1.441860177396917e-11, No Iterations 1
DILUPBiCGStab:  Solving for Uy, Initial residual = 0.0005213310765204397, Final residual = 8.727346201042367e-10, No Iterations 1
DICPBiCGStab:  Solving for p, Initial residual = 0.3656340619001556, Final residual = 0.009853919621675521, No Iterations 2
DICPBiCGStab:  Solving for p, Initial residual = 0.01092528035096342, Final residual = 0.005598348240477373, No Iterations 1
time step continuity errors : sum local = 2.813600540760757e-11, global = -8.411956728927369e-12, cumulative = -1.00321127606397e-10
DICPBiCGStab:  Solving for p, Initial residual = 0.05998456127229717, Final residual = 0.00560842975606901, No Iterations 1
DICPBiCGStab:  Solving for p, Initial residual = 0.005942306914109405, Final residual = 0.004451842328408101, No Iterations 1
time step continuity errors : sum local = 2.238569305144426e-11, global = -8.362104021928329e-12, cumulative = -1.086832316283253e-10
DILUPBiCGStab:  Solving for omega, Initial residual = 8.697133700047697e-07, Final residual = 2.287728432439613e-14, No Iterations 1
DILUPBiCGStab:  Solving for k, Initial residual = 0.002391811359041266, Final residual = 5.925714209643708e-13, No Iterations 1
PIMPLE: iteration 2
DILUPBiCGStab:  Solving for Ux, Initial residual = 3.931698427077316e-06, Final residual = 4.74583726002505e-11, No Iterations 1
DILUPBiCGStab:  Solving for Uy, Initial residual = 0.000206963677362877, Final residual = 5.254901341339343e-11, No Iterations 2
DICPBiCGStab:  Solving for p, Initial residual = 0.3466209229579458, Final residual = 0.009037262433683052, No Iterations 1
DICPBiCGStab:  Solving for p, Initial residual = 0.02082222229011452, Final residual = 0.006669158368098384, No Iterations 1
time step continuity errors : sum local = 2.130208288698914e-11, global = -8.714924394981585e-12, cumulative = -1.173981560233068e-10
DICPBiCGStab:  Solving for p, Initial residual = 0.01221273090145818, Final residual = 0.00563654043441059, No Iterations 1
DICPBiCGStab:  Solving for p, Initial residual = 0.006268108121358225, Final residual = 0.004940798823063958, No Iterations 2
time step continuity errors : sum local = 1.561062447602813e-11, global = -8.547455470922658e-12, cumulative = -1.259456114942295e-10
DILUPBiCGStab:  Solving for omega, Initial residual = 8.625286294658703e-07, Final residual = 4.181450890832596e-13, No Iterations 1
DILUPBiCGStab:  Solving for k, Initial residual = 0.002310605588688155, Final residual = 1.232235024421627e-11, No Iterations 1
PIMPLE: converged in 2 iterations
ExecutionTime = 0.74 s  ClockTime = 4 s

---[precice] [0m Time window completed
---[precice] [0m iteration: 1, time-window: 10, time: 0.09 of 10, time-window-size: 0.01, max-timestep-length: 0.01, ongoing: yes, time-window-complete: yes, 
Courant Number mean: 4.548306934429982e-05 max: 0.08875830481246068
Time = 0.1

PIMPLE: iteration 1
DICPCG:  Solving for cellDisplacementx, Initial residual = 0.1303342390658563, Final residual = 9.67708631958427e-07, No Iterations 78
DICPCG:  Solving for cellDisplacementy, Initial residual = 0.2551345307109746, Final residual = 9.11181513744106e-07, No Iterations 80
DICPCG:  Solving for pcorr, Initial residual = 0.9999999999999916, Final residual = 0.9708757962034067, No Iterations 1
DICPCG:  Solving for pcorr, Initial residual = 0.516664558743391, Final residual = 0.6137891362298812, No Iterations 5
time step continuity errors : sum local = 2.410230848380846e-11, global = -7.703147814376531e-12, cumulative = -1.33648759308606e-10
DILUPBiCGStab:  Solving for Ux, Initial residual = 7.337249251851598e-06, Final residual = 1.50713099294104e-11, No Iterations 1
DILUPBiCGStab:  Solving for Uy, Initial residual = 0.000393646437442668, Final residual = 8.558525345323556e-10, No Iterations 1
DICPBiCGStab:  Solving for p, Initial residual = 0.3822447251002806, Final residual = 0.008549154716131886, No Iterations 2
DICPBiCGStab:  Solving for p, Initial residual = 0.01014679939122848, Final residual = 0.004799321309064008, No Iterations 1
time step continuity errors : sum local = 2.299529679600247e-11, global = -8.960980661058884e-12, cumulative = -1.426097399696649e-10
DICPBiCGStab:  Solving for p, Initial residual = 0.06167112284452241, Final residual = 0.004988998992359042, No Iterations 1
DICPBiCGStab:  Solving for p, Initial residual = 0.00527482169178739, Final residual = 0.004105627540490507, No Iterations 1
time step continuity errors : sum local = 1.96815489221851e-11, global = -8.913390960237091e-12, cumulative = -1.51523130929902e-10
DILUPBiCGStab:  Solving for omega, Initial residual = 8.438422057225743e-07, Final residual = 1.961696586082438e-14, No Iterations 1
DILUPBiCGStab:  Solving for k, Initial residual = 0.002225371457287061, Final residual = 5.337205734032268e-13, No Iterations 1
PIMPLE: iteration 2
DILUPBiCGStab:  Solving for Ux, Initial residual = 2.805247721035159e-06, Final residual = 5.111191777047506e-11, No Iterations 1
DILUPBiCGStab:  Solving for Uy, Initial residual = 0.0001596699463826209, Final residual = 5.518238201878224e-11, No Iterations 2
DICPBiCGStab:  Solving for p, Initial residual = 0.3582374724645673, Final residual = 0.009444221646625792, No Iterations 1
DICPBiCGStab:  Solving for p, Initial residual = 0.02171150921422402, Final residual = 0.007641633021112186, No Iterations 1
time step continuity errors : sum local = 2.25553891845669e-11, global = -9.175189733715024e-12, cumulative = -1.60698320663617e-10
DICPBiCGStab:  Solving for p, Initial residual = 0.013533230874604, Final residual = 0.006425166405745628, No Iterations 1
DICPBiCGStab:  Solving for p, Initial residual = 0.007076532508685272, Final residual = 0.004486982825081156, No Iterations 2
time step continuity errors : sum local = 1.30879595644929e-11, global = -9.040093854120146e-12, cumulative = -1.697384145177372e-10
DILUPBiCGStab:  Solving for omega, Initial residual = 8.377603272295646e-07, Final residual = 3.614237176083272e-13, No Iterations 1
DILUPBiCGStab:  Solving for k, Initial residual = 0.002158861987395648, Final residual = 1.115662662435676e-11, No Iterations 1
PIMPLE: converged in 2 iterations
ExecutionTime = 0.79 s  ClockTime = 4 s

---[precice] [0m Time window completed
---[precice] [0m iteration: 1, time-window: 11, time: 0.1 of 10, time-window-size: 0.01, max-timestep-length: 0.01, ongoing: yes, time-window-complete: yes, 
Courant Number mean: 4.54847459269089e-05 max: 0.08795987974059952
Time = 0.11

PIMPLE: iteration 1
DICPCG:  Solving for cellDisplacementx, Initial residual = 0.1149683959188699, Final residual = 8.596167644458312e-07, No Iterations 78
DICPCG:  Solving for cellDisplacementy, Initial residual = 0.2262331758929354, Final residual = 8.118920737976183e-07, No Iterations 80
DICPCG:  Solving for pcorr, Initial residual = 0.9999999999999903, Final residual = 0.9881203158219782, No Iterations 1
DICPCG:  Solving for pcorr, Initial residual = 0.5306154891438938, Final residual = 0.6495986602051775, No Iterations 5
time step continuity errors : sum local = 2.230461695122804e-11, global = -8.309590461043079e-12, cumulative = -1.780480049787803e-10
DILUPBiCGStab:  Solving for Ux, Initial residual = 5.286600307362625e-06, Final residual = 1.663178414794233e-11, No Iterations 1
DILUPBiCGStab:  Solving for Uy, Initial residual = 0.0003287944220416059, Final residual = 9.89051695794513e-10, No Iterations 1
DICPBiCGStab:  Solving for p, Initial residual = 0.3963868788275712, Final residual = 0.008220028272949924, No Iterations 2
DICPBiCGStab:  Solving for p, Initial residual = 0.01016401507199227, Final residual = 0.00458832722113935, No Iterations 1
time step continuity errors : sum local = 2.099498760539764e-11, global = -9.270645456996037e-12, cumulative = -1.873186504357763e-10
DICPBiCGStab:  Solving for p, Initial residual = 0.06298337104885869, Final residual = 0.00482430440188775, No Iterations 1
DICPBiCGStab:  Solving for p, Initial residual = 0.005176862983290909, Final residual = 0.003941286864676963, No Iterations 1
time step continuity errors : sum local = 1.803957248174288e-11, global = -9.231977209076205e-12, cumulative = -1.965506276448525e-10
DILUPBiCGStab:  Solving for omega, Initial residual = 8.213728690554633e-07, Final residual = 1.718494114748895e-14, No Iterations 1
DILUPBiCGStab:  Solving for k, Initial residual = 0.002088606374147862, Final residual = 4.879035608329735e-13, No Iterations 1
PIMPLE: iteration 2
DILUPBiCGStab:  Solving for Ux, Initial residual = 2.156270447788422e-06, Final residual = 5.308974072714952e-11, No Iterations 1
DILUPBiCGStab:  Solving for Uy, Initial residual = 0.0001383818940433332, Final residual = 5.942599189057837e-11, No Iterations 2
DICPBiCGStab:  Solving for p, Initial residual = 0.3690513441154448, Final residual = 0.00950846536767814, No Iterations 1
DICPBiCGStab:  Solving for p, Initial residual = 0.0227953243794858, Final residual = 0.007613793882374928, No Iterations 1
time step continuity errors : sum local = 2.086488662022673e-11, global = -9.417204351178642e-12, cumulative = -2.059678319960311e-10
DICPBiCGStab:  Solving for p, Initial residual = 0.01417135865074037, Final residual = 0.006492133591723537, No Iterations 1
DICPBiCGStab:  Solving for p, Initial residual = 0.007229778661458546, Final residual = 0.004712198213456506, No Iterations 2
time step continuity errors : sum local = 1.275070698659134e-11, global = -9.299075997794358e-12, cumulative = -2.152669079938255e-10
DILUPBiCGStab:  Solving for omega, Initial residual = 8.162542271920807e-07, Final residual = 3.148586292227073e-13, No Iterations 1
DILUPBiCGStab:  Solving for k, Initial residual = 0.002033052056413933, Final residual = 1.020465892194576e-11, No Iterations 1
PIMPLE: converged in 2 iterations
ExecutionTime = 0.83 s  ClockTime = 4 s

---[precice] [0m Time window completed
---[precice] [0m iteration: 1, time-window: 12, time: 0.11 of 10, time-window-size: 0.01, max-timestep-length: 0.01, ongoing: yes, time-window-complete: yes, 
Courant Number mean: 4.548112425527416e-05 max: 0.08719838849982565
Time = 0.12

PIMPLE: iteration 1
DICPCG:  Solving for cellDisplacementx, Initial residual = 0.1028545417721601, Final residual = 7.658435803342316e-07, No Iterations 78
DICPCG:  Solving for cellDisplacementy, Initial residual = 0.2030873581388315, Final residual = 7.267746504198669e-07, No Iterations 80
DICPCG:  Solving for pcorr, Initial residual = 0.9999999999999901, Final residual = 0.9883122911812279, No Iterations 1
DICPCG:  Solving for pcorr, Initial residual = 0.5260278332263575, Final residual = 0.6557144541021641, No Iterations 5
time step continuity errors : sum local = 2.215418180292786e-11, global = -8.598773787774199e-12, cumulative = -2.238656817815997e-10
DILUPBiCGStab:  Solving for Ux, Initial residual = 4.378545948452032e-06, Final residual = 1.676239072264592e-11, No Iterations 1
DILUPBiCGStab:  Solving for Uy, Initial residual = 0.0002845565294353863, Final residual = 1.092384882320647e-09, No Iterations 1
DICPBiCGStab:  Solving for p, Initial residual = 0.4095582521134704, Final residual = 0.008542823748918982, No Iterations 2
DICPBiCGStab:  Solving for p, Initial residual = 0.01044129872364936, Final residual = 0.004716004607089085, No Iterations 1
time step continuity errors : sum local = 2.063953725862155e-11, global = -9.365498379354074e-12, cumulative = -2.332311801609538e-10
DICPBiCGStab:  Solving for p, Initial residual = 0.06446054449888529, Final residual = 0.004937223741331643, No Iterations 1
DICPBiCGStab:  Solving for p, Initial residual = 0.005199562798738433, Final residual = 0.00404976550084455, No Iterations 1
time step continuity errors : sum local = 1.772472279493506e-11, global = -9.322602577130058e-12, cumulative = -2.425537827380839e-10
DILUPBiCGStab:  Solving for omega, Initial residual = 8.018325917004435e-07, Final residual = 1.496117106837289e-14, No Iterations 1
DILUPBiCGStab:  Solving for k, Initial residual = 0.001974042878989643, Final residual = 4.459967577617164e-13, No Iterations 1
PIMPLE: iteration 2
DILUPBiCGStab:  Solving for Ux, Initial residual = 1.772640367343909e-06, Final residual = 5.453922897923015e-11, No Iterations 1
DILUPBiCGStab:  Solving for Uy, Initial residual = 0.0001204254218892498, Final residual = 6.407409094576541e-11, No Iterations 2
DICPBiCGStab:  Solving for p, Initial residual = 0.379267427239444, Final residual = 0.009871700758604782, No Iterations 1
DICPBiCGStab:  Solving for p, Initial residual = 0.02426773271255448, Final residual = 0.008049538677886482, No Iterations 1
time step continuity errors : sum local = 2.057480997639216e-11, global = -9.434222042377774e-12, cumulative = -2.519880047804616e-10
DICPBiCGStab:  Solving for p, Initial residual = 0.01524025202563638, Final residual = 0.006978515412390486, No Iterations 1
DICPBiCGStab:  Solving for p, Initial residual = 0.00773978185881715, Final residual = 0.004712653355022851, No Iterations 3
time step continuity errors : sum local = 1.1878374298613e-11, global = -9.266231817401471e-12, cumulative = -2.612542365978631e-10
DILUPBiCGStab:  Solving for omega, Initial residual = 7.975176419849831e-07, Final residual = 2.740437348830024e-13, No Iterations 1
DILUPBiCGStab:  Solving for k, Initial residual = 0.001926868740652838, Final residual = 9.343858819652168e-12, No Iterations 1
PIMPLE: converged in 2 iterations
ExecutionTime = 0.88 s  ClockTime = 4 s

---[precice] [0m Time window completed
---[precice] [0m iteration: 1, time-window: 13, time: 0.12 of 10, time-window-size: 0.01, max-timestep-length: 0.01, ongoing: yes, time-window-complete: yes, 
Courant Number mean: 4.548152196450801e-05 max: 0.08647938365201178
Time = 0.13

PIMPLE: iteration 1
DICPCG:  Solving for cellDisplacementx, Initial residual = 0.09304393307469887, Final residual = 9.377343200188748e-07, No Iterations 77
DICPCG:  Solving for cellDisplacementy, Initial residual = 0.1842067395209965, Final residual = 9.144797106834466e-07, No Iterations 79
DICPCG:  Solving for pcorr, Initial residual = 0.9999999999999896, Final residual = 0.9908487183259829, No Iterations 1
DICPCG:  Solving for pcorr, Initial residual = 0.5249911969948029, Final residual = 0.720657989108068, No Iterations 5
time step continuity errors : sum local = 2.309852010815889e-11, global = -8.526324944006015e-12, cumulative = -2.697805615418691e-10
DILUPBiCGStab:  Solving for Ux, Initial residual = 3.236654628153457e-06, Final residual = 1.931148274575721e-11, No Iterations 1
DILUPBiCGStab:  Solving for Uy, Initial residual = 0.0002317386675938187, Final residual = 1.396233049438316e-09, No Iterations 1
DICPBiCGStab:  Solving for p, Initial residual = 0.4224724393285016, Final residual = 0.009282484624991804, No Iterations 2
DICPBiCGStab:  Solving for p, Initial residual = 0.01090179670059204, Final residual = 0.005120340899085499, No Iterations 1
time step continuity errors : sum local = 2.14598455751035e-11, global = -9.124736705662894e-12, cumulative = -2.78905298247532e-10
DICPBiCGStab:  Solving for p, Initial residual = 0.06605411620789153, Final residual = 0.005365882163215117, No Iterations 1
DICPBiCGStab:  Solving for p, Initial residual = 0.005566424239117356, Final residual = 0.004358819392939607, No Iterations 1
time step continuity errors : sum local = 1.826789567294503e-11, global = -9.073027377487954e-12, cumulative = -2.8797832562502e-10
DILUPBiCGStab:  Solving for omega, Initial residual = 7.847975243031815e-07, Final residual = 1.315356961118282e-14, No Iterations 1
DILUPBiCGStab:  Solving for k, Initial residual = 0.001876541565400734, Final residual = 4.107928386982697e-13, No Iterations 1
PIMPLE: iteration 2
DILUPBiCGStab:  Solving for Ux, Initial residual = 1.322562241474957e-06, Final residual = 6.293159760691231e-11, No Iterations 1
DILUPBiCGStab:  Solving for Uy, Initial residual = 0.0001005030323276524, Final residual = 6.930184928825471e-11, No Iterations 2
DICPBiCGStab:  Solving for p, Initial residual = 0.3894808811178333, Final residual = 0.006761145774179282, No Iterations 2
DICPBiCGStab:  Solving for p, Initial residual = 0.02175278981526226, Final residual = 0.007677906906217551, No Iterations 1
time step continuity errors : sum local = 1.816968959231589e-11, global = -9.084652803685348e-12, cumulative = -2.970629784287053e-10
DICPBiCGStab:  Solving for p, Initial residual = 0.01562779568959262, Final residual = 0.006974854640653228, No Iterations 1
DICPBiCGStab:  Solving for p, Initial residual = 0.007704681137362613, Final residual = 0.004740396269925073, No Iterations 3
time step continuity errors : sum local = 1.112299841695125e-11, global = -8.900309037987709e-12, cumulative = -3.059632874666931e-10
DILUPBiCGStab:  Solving for omega, Initial residual = 7.811883032297651e-07, Final residual = 2.407891928159372e-13, No Iterations 1
DILUPBiCGStab:  Solving for k, Initial residual = 0.001835953446017146, Final residual = 8.622041666579235e-12, No Iterations 1
PIMPLE: converged in 2 iterations
ExecutionTime = 0.93 s  ClockTime = 4 s

---[precice] [0m Time window completed
---[precice] [0m iteration: 1, time-window: 14, time: 0.13 of 10, time-window-size: 0.01, max-timestep-length: 0.01, ongoing: yes, time-window-complete: yes, 
Courant Number mean: 4.547984261031989e-05 max: 0.08580562025124061
Time = 0.14

PIMPLE: iteration 1
DICPCG:  Solving for cellDisplacementx, Initial residual = 0.08495699178936007, Final residual = 8.649176746691529e-07, No Iterations 77
DICPCG:  Solving for cellDisplacementy, Initial residual = 0.1685480968562964, Final residual = 8.161636459061987e-07, No Iterations 79
DICPCG:  Solving for pcorr, Initial residual = 0.999999999999989, Final residual = 0.9869743601351325, No Iterations 1
DICPCG:  Solving for pcorr, Initial residual = 0.5186274878607182, Final residual = 0.7333439973166362, No Iterations 5
time step continuity errors : sum local = 2.258523250546476e-11, global = -8.158722704836792e-12, cumulative = -3.141220101715299e-10
DILUPBiCGStab:  Solving for Ux, Initial residual = 3.465198748422426e-06, Final residual = 1.895536624328842e-11, No Iterations 1
DILUPBiCGStab:  Solving for Uy, Initial residual = 0.0002794015337812929, Final residual = 1.456495453088013e-09, No Iterations 1
DICPBiCGStab:  Solving for p, Initial residual = 0.4347234555746492, Final residual = 0.009349189329566653, No Iterations 2
DICPBiCGStab:  Solving for p, Initial residual = 0.01100472265877536, Final residual = 0.005087011613245527, No Iterations 1
time step continuity errors : sum local = 2.045580775564705e-11, global = -8.527098388961366e-12, cumulative = -3.226491085604912e-10
DICPBiCGStab:  Solving for p, Initial residual = 0.06739484512011314, Final residual = 0.005422872542914943, No Iterations 1
DICPBiCGStab:  Solving for p, Initial residual = 0.005633024722900771, Final residual = 0.004424359250696958, No Iterations 1
time step continuity errors : sum local = 1.77917975728745e-11, global = -8.477023000352927e-12, cumulative = -3.311261315608442e-10
DILUPBiCGStab:  Solving for omega, Initial residual = 7.699111248902531e-07, Final residual = 1.162345653761519e-14, No Iterations 1
DILUPBiCGStab:  Solving for k, Initial residual = 0.001792483673899849, Final residual = 3.803933796177278e-13, No Iterations 1
PIMPLE: iteration 2
DILUPBiCGStab:  Solving for Ux, Initial residual = 1.671504153991586e-06, Final residual = 5.631517235458902e-11, No Iterations 1
DILUPBiCGStab:  Solving for Uy, Initial residual = 0.0001427521235748662, Final residual = 7.440630751211537e-11, No Iterations 2
DICPBiCGStab:  Solving for p, Initial residual = 0.3991416362031752, Final residual = 0.006900739912525259, No Iterations 2
DICPBiCGStab:  Solving for p, Initial residual = 0.02254638755735566, Final residual = 0.007867266672186986, No Iterations 1
time step continuity errors : sum local = 1.750845485429225e-11, global = -8.3907538839151e-12, cumulative = -3.395168854447593e-10
DICPBiCGStab:  Solving for p, Initial residual = 0.016156005544053, Final residual = 0.007123736791129213, No Iterations 1
DICPBiCGStab:  Solving for p, Initial residual = 0.007952464911242737, Final residual = 0.004774484616250788, No Iterations 3
time step continuity errors : sum local = 1.058992529598413e-11, global = -8.220864958442403e-12, cumulative = -3.477377504032017e-10
DILUPBiCGStab:  Solving for omega, Initial residual = 7.669134927852202e-07, Final residual = 2.144539919849656e-13, No Iterations 1
DILUPBiCGStab:  Solving for k, Initial residual = 0.001757169084696729, Final residual = 8.067364566587323e-12, No Iterations 1
PIMPLE: converged in 2 iterations
ExecutionTime = 0.98 s  ClockTime = 4 s

---[precice] [0m Time window completed
---[precice] [0m iteration: 1, time-window: 15, time: 0.14 of 10, time-window-size: 0.01, max-timestep-length: 0.01, ongoing: yes, time-window-complete: yes, 
Courant Number mean: 4.547717191856993e-05 max: 0.08516729494687521
Time = 0.15

PIMPLE: iteration 1
DICPCG:  Solving for cellDisplacementx, Initial residual = 0.07815388594613625, Final residual = 7.864860040072009e-07, No Iterations 77
DICPCG:  Solving for cellDisplacementy, Initial residual = 0.1553406579938151, Final residual = 7.546747964954053e-07, No Iterations 79
DICPCG:  Solving for pcorr, Initial residual = 0.9999999999999887, Final residual = 0.9837757455123088, No Iterations 1
DICPCG:  Solving for pcorr, Initial residual = 0.5138508541303805, Final residual = 0.7055792243920271, No Iterations 5
time step continuity errors : sum local = 2.111459259109566e-11, global = -7.533728700846402e-12, cumulative = -3.552714791040481e-10
DILUPBiCGStab:  Solving for Ux, Initial residual = 4.251367039458422e-06, Final residual = 1.489457650793628e-11, No Iterations 1
DILUPBiCGStab:  Solving for Uy, Initial residual = 0.0003916821622991719, Final residual = 1.280520057165685e-09, No Iterations 1
DICPBiCGStab:  Solving for p, Initial residual = 0.4375208478522035, Final residual = 0.009257388491311941, No Iterations 2
DICPBiCGStab:  Solving for p, Initial residual = 0.01091247837921001, Final residual = 0.004948145284992966, No Iterations 1
time step continuity errors : sum local = 1.941326063423063e-11, global = -7.63222983301608e-12, cumulative = -3.629037089370642e-10
DICPBiCGStab:  Solving for p, Initial residual = 0.06748427666367465, Final residual = 0.005297488656900921, No Iterations 1
DICPBiCGStab:  Solving for p, Initial residual = 0.005519516215656839, Final residual = 0.004281793562478216, No Iterations 1
time step continuity errors : sum local = 1.682813931613505e-11, global = -7.586924587364868e-12, cumulative = -3.70490633524429e-10
DILUPBiCGStab:  Solving for omega, Initial residual = 7.568708489888804e-07, Final residual = 1.046635154536021e-14, No Iterations 1
DILUPBiCGStab:  Solving for k, Initial residual = 0.001719202808810486, Final residual = 3.577783290005718e-13, No Iterations 1
PIMPLE: iteration 2
DILUPBiCGStab:  Solving for Ux, Initial residual = 1.956947561003111e-06, Final residual = 4.8185755658579e-11, No Iterations 1
DILUPBiCGStab:  Solving for Uy, Initial residual = 0.0001884603403015761, Final residual = 7.859517786651682e-11, No Iterations 2
DICPBiCGStab:  Solving for p, Initial residual = 0.3966416491410902, Final residual = 0.006776750143682476, No Iterations 2
DICPBiCGStab:  Solving for p, Initial residual = 0.02235563087862487, Final residual = 0.007704479083410162, No Iterations 1
time step continuity errors : sum local = 1.686761087414318e-11, global = -7.411613878898267e-12, cumulative = -3.779022474033273e-10
DICPBiCGStab:  Solving for p, Initial residual = 0.01595007266824289, Final residual = 0.006951043680057448, No Iterations 1
DICPBiCGStab:  Solving for p, Initial residual = 0.007783268259265375, Final residual = 0.00491310482985214, No Iterations 2
time step continuity errors : sum local = 1.071868928466906e-11, global = -7.299577053321944e-12, cumulative = -3.852018244566492e-10
DILUPBiCGStab:  Solving for omega, Initial residual = 7.544067353949521e-07, Final residual = 1.956401003081355e-13, No Iterations 1
DILUPBiCGStab:  Solving for k, Initial residual = 0.001688179539181202, Final residual = 7.662710703743545e-12, No Iterations 1
PIMPLE: converged in 2 iterations
ExecutionTime = 1.01 s  ClockTime = 4 s

---[precice] [0m Time window completed
---[precice] [0m iteration: 1, time-window: 16, time: 0.15 of 10, time-window-size: 0.01, max-timestep-length: 0.01, ongoing: yes, time-window-complete: yes, 
Courant Number mean: 4.547643405816715e-05 max: 0.08456694445077619
Time = 0.16

PIMPLE: iteration 1
DICPCG:  Solving for cellDisplacementx, Initial residual = 0.07236370599490725, Final residual = 7.436223608798164e-07, No Iterations 77
DICPCG:  Solving for cellDisplacementy, Initial residual = 0.144054692830616, Final residual = 7.057366367214655e-07, No Iterations 79
DICPCG:  Solving for pcorr, Initial residual = 0.9999999999999888, Final residual = 0.9903170797753008, No Iterations 1
DICPCG:  Solving for pcorr, Initial residual = 0.5139227057442337, Final residual = 0.615993199273735, No Iterations 5
time step continuity errors : sum local = 1.860790202805504e-11, global = -6.697629833464233e-12, cumulative = -3.918994542901135e-10
DILUPBiCGStab:  Solving for Ux, Initial residual = 4.762040350070485e-06, Final residual = 1.361505177061244e-11, No Iterations 1
DILUPBiCGStab:  Solving for Uy, Initial residual = 0.000487566982217065, Final residual = 1.309170174008134e-09, No Iterations 1
DICPBiCGStab:  Solving for p, Initial residual = 0.4373395097975475, Final residual = 0.008726920782549424, No Iterations 2
DICPBiCGStab:  Solving for p, Initial residual = 0.01062675135900104, Final residual = 0.004530374294304221, No Iterations 1
time step continuity errors : sum local = 1.742402007562913e-11, global = -6.547071788300251e-12, cumulative = -3.984465260784137e-10
DICPBiCGStab:  Solving for p, Initial residual = 0.06724760779915775, Final residual = 0.004880855832754357, No Iterations 1
DICPBiCGStab:  Solving for p, Initial residual = 0.005162402901631052, Final residual = 0.00383395912088399, No Iterations 1
time step continuity errors : sum local = 1.476935980468578e-11, global = -6.509951015799131e-12, cumulative = -4.049564770942128e-10
DILUPBiCGStab:  Solving for omega, Initial residual = 7.454126204709497e-07, Final residual = 9.525193647524107e-15, No Iterations 1
DILUPBiCGStab:  Solving for k, Initial residual = 0.001654702522492473, Final residual = 3.381583998105105e-13, No Iterations 1
PIMPLE: iteration 2
DILUPBiCGStab:  Solving for Ux, Initial residual = 2.165348554872737e-06, Final residual = 4.403449309406579e-11, No Iterations 1
DILUPBiCGStab:  Solving for Uy, Initial residual = 0.0002325623652383997, Final residual = 8.578639405245012e-11, No Iterations 2
DICPBiCGStab:  Solving for p, Initial residual = 0.3944753845654433, Final residual = 0.00652243560464701, No Iterations 2
DICPBiCGStab:  Solving for p, Initial residual = 0.02197682641870175, Final residual = 0.007359628064399011, No Iterations 1
time step continuity errors : sum local = 1.58557446549387e-11, global = -6.267888668646197e-12, cumulative = -4.112243657628591e-10
DICPBiCGStab:  Solving for p, Initial residual = 0.01564470926909848, Final residual = 0.006898679270826984, No Iterations 1
DICPBiCGStab:  Solving for p, Initial residual = 0.007513476325895008, Final residual = 0.00486035528375819, No Iterations 2
time step continuity errors : sum local = 1.042966367576388e-11, global = -6.162734757538904e-12, cumulative = -4.17387100520398e-10
DILUPBiCGStab:  Solving for omega, Initial residual = 7.433875414395382e-07, Final residual = 1.780121845103457e-13, No Iterations 1
DILUPBiCGStab:  Solving for k, Initial residual = 0.001627217243939751, Final residual = 7.253564238346311e-12, No Iterations 1
PIMPLE: converged in 2 iterations
ExecutionTime = 1.06 s  ClockTime = 4 s

---[precice] [0m Time window completed
---[precice] [0m iteration: 1, time-window: 17, time: 0.16 of 10, time-window-size: 0.01, max-timestep-length: 0.01, ongoing: yes, time-window-complete: yes, 
Courant Number mean: 4.547441170326095e-05 max: 0.08398738862936878
Time = 0.17

PIMPLE: iteration 1
DICPCG:  Solving for cellDisplacementx, Initial residual = 0.06737073364344323, Final residual = 6.880687381556538e-07, No Iterations 77
DICPCG:  Solving for cellDisplacementy, Initial residual = 0.1342818911086257, Final residual = 9.903163811644327e-07, No Iterations 78
DICPCG:  Solving for pcorr, Initial residual = 0.9999999999999885, Final residual = 0.9923574727440142, No Iterations 1
DICPCG:  Solving for pcorr, Initial residual = 0.5049651176101053, Final residual = 0.5588292214292772, No Iterations 5
time step continuity errors : sum local = 1.669756826675509e-11, global = -5.622425917995402e-12, cumulative = -4.230095264383934e-10
DILUPBiCGStab:  Solving for Ux, Initial residual = 5.239417141353659e-06, Final residual = 1.239254920494406e-11, No Iterations 1
DILUPBiCGStab:  Solving for Uy, Initial residual = 0.0006114709445326431, Final residual = 1.353643892474504e-09, No Iterations 1
DICPBiCGStab:  Solving for p, Initial residual = 0.4360160508896098, Final residual = 0.008956547363999801, No Iterations 2
DICPBiCGStab:  Solving for p, Initial residual = 0.0107084300405639, Final residual = 0.004616912897836442, No Iterations 1
time step continuity errors : sum local = 1.740911822908841e-11, global = -5.264638881815304e-12, cumulative = -4.282741653202087e-10
DICPBiCGStab:  Solving for p, Initial residual = 0.06698464540645013, Final residual = 0.00491557604438748, No Iterations 1
DICPBiCGStab:  Solving for p, Initial residual = 0.005206537527296482, Final residual = 0.003759655607660162, No Iterations 1
time step continuity errors : sum local = 1.419482103545211e-11, global = -5.232351575755931e-12, cumulative = -4.335065168959646e-10
DILUPBiCGStab:  Solving for omega, Initial residual = 7.355350200208807e-07, Final residual = 8.688764748854947e-15, No Iterations 1
DILUPBiCGStab:  Solving for k, Initial residual = 0.001597451777864684, Final residual = 3.201645033601093e-13, No Iterations 1
PIMPLE: iteration 2
DILUPBiCGStab:  Solving for Ux, Initial residual = 2.363539881280298e-06, Final residual = 4.159725204266112e-11, No Iterations 1
DILUPBiCGStab:  Solving for Uy, Initial residual = 0.0002905996168458669, Final residual = 9.288417614389755e-11, No Iterations 2
DICPBiCGStab:  Solving for p, Initial residual = 0.3931171097240193, Final residual = 0.00628395504457041, No Iterations 2
DICPBiCGStab:  Solving for p, Initial residual = 0.02181890122241742, Final residual = 0.006761638754886755, No Iterations 1
time step continuity errors : sum local = 1.432485952990966e-11, global = -4.931231694999204e-12, cumulative = -4.384377485909638e-10
DICPBiCGStab:  Solving for p, Initial residual = 0.01521145385394176, Final residual = 0.00635239302601245, No Iterations 1
DICPBiCGStab:  Solving for p, Initial residual = 0.007113110729531191, Final residual = 0.004403249290529107, No Iterations 2
time step continuity errors : sum local = 9.294500052780339e-12, global = -4.844258983656246e-12, cumulative = -4.432820075746201e-10
DILUPBiCGStab:  Solving for omega, Initial residual = 7.336576293162909e-07, Final residual = 1.639043169514863e-13, No Iterations 1
DILUPBiCGStab:  Solving for k, Initial residual = 0.001572916716331545, Final residual = 6.923444157074208e-12, No Iterations 1
PIMPLE: converged in 2 iterations
ExecutionTime = 1.09 s  ClockTime = 4 s

---[precice] [0m Time window completed
---[precice] [0m iteration: 1, time-window: 18, time: 0.17 of 10, time-window-size: 0.01, max-timestep-length: 0.01, ongoing: yes, time-window-complete: yes, 
Courant Number mean: 4.547135117391785e-05 max: 0.08342597273845939
Time = 0.18

PIMPLE: iteration 1
DICPCG:  Solving for cellDisplacementx, Initial residual = 0.06302377923810354, Final residual = 9.442582373884844e-07, No Iterations 76
DICPCG:  Solving for cellDisplacementy, Initial residual = 0.1256802329015866, Final residual = 9.39943781853447e-07, No Iterations 78
DICPCG:  Solving for pcorr, Initial residual = 0.9999999999999875, Final residual = 0.9817442302989055, No Iterations 1
DICPCG:  Solving for pcorr, Initial residual = 0.4951257894100646, Final residual = 0.5211314763640149, No Iterations 5
time step continuity errors : sum local = 1.455208248664824e-11, global = -4.36742829466539e-12, cumulative = -4.476494358692855e-10
DILUPBiCGStab:  Solving for Ux, Initial residual = 5.676736552170547e-06, Final residual = 1.168432584679043e-11, No Iterations 1
DILUPBiCGStab:  Solving for Uy, Initial residual = 0.0007632225758250102, Final residual = 1.42909356036611e-09, No Iterations 1
DICPBiCGStab:  Solving for p, Initial residual = 0.4358701585246182, Final residual = 0.008498779022148878, No Iterations 2
DICPBiCGStab:  Solving for p, Initial residual = 0.01048688666236307, Final residual = 0.004307399278676829, No Iterations 1
time step continuity errors : sum local = 1.593690984368104e-11, global = -3.824700141427305e-12, cumulative = -4.514741360107128e-10
DICPBiCGStab:  Solving for p, Initial residual = 0.06685168751201456, Final residual = 0.004652302548432313, No Iterations 1
DICPBiCGStab:  Solving for p, Initial residual = 0.005005561340596991, Final residual = 0.003510276749651749, No Iterations 1
time step continuity errors : sum local = 1.299810479390243e-11, global = -3.799977005869914e-12, cumulative = -4.552741130165827e-10
DILUPBiCGStab:  Solving for omega, Initial residual = 7.267656411999899e-07, Final residual = 8.052627079468958e-15, No Iterations 1
DILUPBiCGStab:  Solving for k, Initial residual = 0.001546260369435585, Final residual = 3.061230944691925e-13, No Iterations 1
PIMPLE: iteration 2
[...]
DICPBiCGStab:  Solving for p, Initial residual = 0.0009019760944321372, Final residual = 0.0005370932148024469, No Iterations 1
time step continuity errors : sum local = 8.838973988651464e+39, global = -8.021732932218445e+39, cumulative = -1.311012854523238e+39
DICPBiCGStab:  Solving for p, Initial residual = 0.0002231650716880222, Final residual = 0.0001102525592223685, No Iterations 1
DICPBiCGStab:  Solving for p, Initial residual = 7.397030917628947e-05, Final residual = 5.342325855928811e-05, No Iterations 1
time step continuity errors : sum local = 7.441794964503126e+39, global = -5.589841673372813e+39, cumulative = -6.900854527896051e+39
DILUPBiCGStab:  Solving for omega, Initial residual = 0.2000409081611781, Final residual = 5.893529880894793e-58, No Iterations 1
DILUPBiCGStab:  Solving for k, Initial residual = 0.2000700001439993, Final residual = 4.867405580455732e-36, No Iterations 1
PIMPLE: iteration 22
DILUPBiCGStab:  Solving for Ux, Initial residual = 0.4862917227141959, Final residual = 5.903605771797117e-07, No Iterations 4
DILUPBiCGStab:  Solving for Uy, Initial residual = 0.5043555168803038, Final residual = 6.005390658694801e-08, No Iterations 5
DICPBiCGStab:  Solving for p, Initial residual = 0.000400860614062782, Final residual = 0.0001930028906893715, No Iterations 1
DICPBiCGStab:  Solving for p, Initial residual = 0.000189461086140206, Final residual = 0.0001199034461280427, No Iterations 1
time step continuity errors : sum local = 1.914597423111946e+40, global = -1.690849943409292e+40, cumulative = -2.380935396198897e+40
DICPBiCGStab:  Solving for p, Initial residual = 0.0005817984388590365, Final residual = 0.0001716347227014945, No Iterations 1
DICPBiCGStab:  Solving for p, Initial residual = 7.006422670110166e-05, Final residual = 4.669914747497637e-05, No Iterations 1
time step continuity errors : sum local = 1.311140200484047e+40, global = -1.122373704484161e+40, cumulative = -3.503309100683058e+40
DILUPBiCGStab:  Solving for omega, Initial residual = 0.2000409081611782, Final residual = 4.294465220171472e-54, No Iterations 1
DILUPBiCGStab:  Solving for k, Initial residual = 0.2000525091197719, Final residual = 1.859368822425729e-35, No Iterations 1
PIMPLE: iteration 23
DILUPBiCGStab:  Solving for Ux, Initial residual = 0.3716285664690414, Final residual = 3.17355184417464e-07, No Iterations 6
DILUPBiCGStab:  Solving for Uy, Initial residual = 0.2219492387675077, Final residual = 7.78296204467372e-07, No Iterations 5
DICPBiCGStab:  Solving for p, Initial residual = 0.002163230010259266, Final residual = 0.0008380613913380877, No Iterations 1
DICPBiCGStab:  Solving for p, Initial residual = 0.0001625600863914239, Final residual = 0.0001048781913512531, No Iterations 1
time step continuity errors : sum local = 1.775265797539018e+40, global = -1.116818167742311e+40, cumulative = -4.620127268425369e+40
DICPBiCGStab:  Solving for p, Initial residual = 0.0001620419236324318, Final residual = 7.48156839204152e-05, No Iterations 1
DICPBiCGStab:  Solving for p, Initial residual = 6.110588249388705e-05, Final residual = 5.238155456730459e-05, No Iterations 1
time step continuity errors : sum local = 1.375593652401475e+40, global = -1.117681923284825e+40, cumulative = -5.737809191710193e+40
DILUPBiCGStab:  Solving for omega, Initial residual = 0.2000409081605069, Final residual = 5.782783881949248e-51, No Iterations 1
DILUPBiCGStab:  Solving for k, Initial residual = 0.2000473550847287, Final residual = 7.457909775500894e-35, No Iterations 1
PIMPLE: iteration 24
DILUPBiCGStab:  Solving for Ux, Initial residual = 0.2783768429241458, Final residual = 8.552773526533512e-07, No Iterations 5
DILUPBiCGStab:  Solving for Uy, Initial residual = 0.2511358975928812, Final residual = 9.986964390050443e-07, No Iterations 4
DICPBiCGStab:  Solving for p, Initial residual = 0.001493760341448817, Final residual = 0.0006520495329341535, No Iterations 1
DICPBiCGStab:  Solving for p, Initial residual = 0.0007260719867214727, Final residual = 0.0005508664835234431, No Iterations 1
time step continuity errors : sum local = 1.344779914137183e+40, global = -8.183252532997724e+39, cumulative = -6.556134445009966e+40
DICPBiCGStab:  Solving for p, Initial residual = 0.0008598866305976859, Final residual = 0.0004538013517590257, No Iterations 1
DICPBiCGStab:  Solving for p, Initial residual = 0.000478957836809743, Final residual = 0.0004369083418771326, No Iterations 1
time step continuity errors : sum local = 1.134335576343986e+40, global = -8.496102536639608e+39, cumulative = -7.405744698673927e+40
DILUPBiCGStab:  Solving for omega, Initial residual = 0.2000409081609544, Final residual = 4.443134140719683e-62, No Iterations 1
DILUPBiCGStab:  Solving for k, Initial residual = 0.2000446784464744, Final residual = 5.854317875756149e-35, No Iterations 1
PIMPLE: iteration 25
DILUPBiCGStab:  Solving for Ux, Initial residual = 0.1806841011310444, Final residual = 3.404910751827746e-07, No Iterations 5
DILUPBiCGStab:  Solving for Uy, Initial residual = 0.132206104826453, Final residual = 2.595764903313453e-07, No Iterations 5
DICPBiCGStab:  Solving for p, Initial residual = 0.002285418105480693, Final residual = 0.0008639102127904414, No Iterations 1
DICPBiCGStab:  Solving for p, Initial residual = 0.001348654228107549, Final residual = 0.0009460866387976594, No Iterations 1
time step continuity errors : sum local = 9.756830616641614e+39, global = -5.835898601961746e+39, cumulative = -7.989334558870101e+40
DICPBiCGStab:  Solving for p, Initial residual = 0.001693568127051202, Final residual = 0.0008936386815000831, No Iterations 1
DICPBiCGStab:  Solving for p, Initial residual = 0.001030493335982807, Final residual = 0.0009821577121267792, No Iterations 1
time step continuity errors : sum local = 8.490454140568047e+39, global = -5.351586189175319e+39, cumulative = -8.524493177787632e+40
DILUPBiCGStab:  Solving for omega, Initial residual = 0.2000409081611036, Final residual = 5.366785692905816e-63, No Iterations 1
DILUPBiCGStab:  Solving for k, Initial residual = 0.2000432101642196, Final residual = 1.904462681092653e-35, No Iterations 1
PIMPLE: iteration 26
DILUPBiCGStab:  Solving for Ux, Initial residual = 0.1382289318022114, Final residual = 9.908474028242648e-07, No Iterations 4
DILUPBiCGStab:  Solving for Uy, Initial residual = 0.09144258197532776, Final residual = 3.449540251208317e-07, No Iterations 5
DICPBiCGStab:  Solving for p, Initial residual = 0.004022101222285063, Final residual = 0.001445828270609158, No Iterations 1
DICPBiCGStab:  Solving for p, Initial residual = 0.001953552282709934, Final residual = 0.001259511693361219, No Iterations 1
time step continuity errors : sum local = 6.572095069091261e+39, global = -2.473599604822506e+39, cumulative = -8.771853138269883e+40
DICPBiCGStab:  Solving for p, Initial residual = 0.002751084361540762, Final residual = 0.001203185569195781, No Iterations 1
DICPBiCGStab:  Solving for p, Initial residual = 0.00153624376921173, Final residual = 0.00137909744457715, No Iterations 1
time step continuity errors : sum local = 5.269768934824785e+39, global = -2.583331283554829e+39, cumulative = -9.030186266625367e+40
DILUPBiCGStab:  Solving for omega, Initial residual = 0.2000409081611533, Final residual = 2.508403069972306e-63, No Iterations 1
DILUPBiCGStab:  Solving for k, Initial residual = 0.2000423995198975, Final residual = 3.808700492352925e-36, No Iterations 1
PIMPLE: iteration 27
DILUPBiCGStab:  Solving for Ux, Initial residual = 0.1080438520884381, Final residual = 3.427749883285811e-07, No Iterations 5
DILUPBiCGStab:  Solving for Uy, Initial residual = 0.07359993419458385, Final residual = 3.737009612936489e-07, No Iterations 5
DICPBiCGStab:  Solving for p, Initial residual = 0.007164506700127693, Final residual = 0.002065956787644012, No Iterations 1
DICPBiCGStab:  Solving for p, Initial residual = 0.003167849601937629, Final residual = 0.001741717925492655, No Iterations 1
time step continuity errors : sum local = 3.682549882486642e+39, global = -7.329542368279689e+37, cumulative = -9.037515808993646e+40
DICPBiCGStab:  Solving for p, Initial residual = 0.004268894520798178, Final residual = 0.001368900601131111, No Iterations 1
DICPBiCGStab:  Solving for p, Initial residual = 0.001847300368532963, Final residual = 0.001318868194738715, No Iterations 1
time step continuity errors : sum local = 2.131508867475397e+39, global = -2.142537975999207e+38, cumulative = -9.058941188753637e+40
DILUPBiCGStab:  Solving for omega, Initial residual = 0.2000409081611698, Final residual = 1.060279131956112e-63, No Iterations 1
DILUPBiCGStab:  Solving for k, Initial residual = 0.2000418973369842, Final residual = 2.109267081647152e-36, No Iterations 1
PIMPLE: iteration 28
DILUPBiCGStab:  Solving for Ux, Initial residual = 0.09533033979865724, Final residual = 8.065877437377229e-07, No Iterations 4
DILUPBiCGStab:  Solving for Uy, Initial residual = 0.06304455725587399, Final residual = 8.744445915452382e-07, No Iterations 4
DICPBiCGStab:  Solving for p, Initial residual = 0.01305953806407659, Final residual = 0.003576520924674122, No Iterations 1
DICPBiCGStab:  Solving for p, Initial residual = 0.006727915025907515, Final residual = 0.004347524675692989, No Iterations 1
time step continuity errors : sum local = 3.521631782815213e+39, global = 1.9455927502516e+39, cumulative = -8.864381913728476e+40
DICPBiCGStab:  Solving for p, Initial residual = 0.01021209928530586, Final residual = 0.004290407228161441, No Iterations 1
DICPBiCGStab:  Solving for p, Initial residual = 0.006084605035578573, Final residual = 0.004656151891485751, No Iterations 2
time step continuity errors : sum local = 2.489685082495285e+39, global = 1.544154096088406e+39, cumulative = -8.709966504119636e+40
DILUPBiCGStab:  Solving for omega, Initial residual = 0.2000409081611755, Final residual = 6.064582078419641e-64, No Iterations 1
DILUPBiCGStab:  Solving for k, Initial residual = 0.200041580465401, Final residual = 1.111853047813534e-36, No Iterations 1
PIMPLE: iteration 29
DILUPBiCGStab:  Solving for Ux, Initial residual = 0.09092425199564305, Final residual = 9.508701486091833e-07, No Iterations 4
DILUPBiCGStab:  Solving for Uy, Initial residual = 0.05815697096824789, Final residual = 1.92857051806577e-07, No Iterations 5
DICPBiCGStab:  Solving for p, Initial residual = 0.04637127270909729, Final residual = 0.009739069919964444, No Iterations 3
DICPBiCGStab:  Solving for p, Initial residual = 0.01133684682227592, Final residual = 0.0077185143524418, No Iterations 1
time step continuity errors : sum local = 3.55688064835214e+39, global = 2.813051755618255e+39, cumulative = -8.42866132855781e+40
DICPBiCGStab:  Solving for p, Initial residual = 0.01857690006782946, Final residual = 0.007952597858346564, No Iterations 1
DICPBiCGStab:  Solving for p, Initial residual = 0.007933281662648348, Final residual = 0.004243648155056992, No Iterations 4
time step continuity errors : sum local = 1.963266433778292e+39, global = 1.201622228109213e+39, cumulative = -8.308499105746889e+40
DILUPBiCGStab:  Solving for omega, Initial residual = 0.2000409081611772, Final residual = 3.843889384385336e-64, No Iterations 1
DILUPBiCGStab:  Solving for k, Initial residual = 0.2000413639812529, Final residual = 5.977125725090943e-37, No Iterations 1
PIMPLE: iteration 30
DILUPBiCGStab:  Solving for Ux, Initial residual = 0.4271143356965038, Final residual = 0.005527765910341809, No Iterations 10
DILUPBiCGStab:  Solving for Uy, Initial residual = 0.4735197241084956, Final residual = 0.02622385812781161, No Iterations 10
DICPBiCGStab:  Solving for p, Initial residual = 0.08359992939051189, Final residual = 0.008143581625822726, No Iterations 7
DICPBiCGStab:  Solving for p, Initial residual = 0.00285109602867205, Final residual = 0.0005543951991712371, No Iterations 1
time step continuity errors : sum local = 1.767340587889419e+40, global = -4.316639327447593e+39, cumulative = -8.740163038491648e+40
DICPBiCGStab:  Solving for p, Initial residual = 0.006521299230776596, Final residual = 0.003219540588082206, No Iterations 1
DICPBiCGStab:  Solving for p, Initial residual = 0.003925143324041703, Final residual = 0.002524734526101833, No Iterations 1
time step continuity errors : sum local = 7.04000872398093e+40, global = 9.873263916909837e+39, cumulative = -7.752836646800664e+40
DILUPBiCGStab:  Solving for omega, Initial residual = 0.3333901482870287, Final residual = 1.100627956941465e-54, No Iterations 1
bounding omega, min: 0 max: 3.404107377396331e+80 average: 8.701705974939497e+76
DILUPBiCGStab:  Solving for k, Initial residual = 0.333390576428881, Final residual = 1.958094863324116e-34, No Iterations 1
bounding k, min: -281474976710656 max: 6.68093917054444e+72 average: 2.463222061686814e+69
PIMPLE: not converged within 30 iterations
ExecutionTime = 32.64 s  ClockTime = 40 s

---[precice] [0m Time window completed
---[precice] [0m iteration: 1, time-window: 558, time: 5.57 of 10, time-window-size: 0.01, max-timestep-length: 0.01, ongoing: yes, time-window-complete: yes, 
Courant Number mean: 2.002387957821236e+42 max: 1.874011820017713e+46
Time = 5.58

PIMPLE: iteration 1
DICPCG:  Solving for cellDisplacementx, Initial residual = 0.001642173802549398, Final residual = 8.799064939862041e-07, No Iterations 63
DICPCG:  Solving for cellDisplacementy, Initial residual = 0.003208094966590626, Final residual = 9.378504369105303e-07, No Iterations 66
DICPCG:  Solving for pcorr, Initial residual = 1, Final residual = 1.627901912973081, No Iterations 1
DICPCG:  Solving for pcorr, Initial residual = 0.5736790605680029, Final residual = 0.2399151979629434, No Iterations 1
time step continuity errors : sum local = 5.045756693976601e+40, global = 5.619069081439887e+39, cumulative = -7.190929738656675e+40
DILUPBiCGStab:  Solving for Ux, Initial residual = 0.2149553454905803, Final residual = 4.287061744976728e-07, No Iterations 5
DILUPBiCGStab:  Solving for Uy, Initial residual = 0.2368343197241238, Final residual = 8.653932553419522e-07, No Iterations 5
DICPBiCGStab:  Solving for p, Initial residual = 0.0150341401889211, Final residual = 0.009381292416175573, No Iterations 1
DICPBiCGStab:  Solving for p, Initial residual = 0.009833086055364381, Final residual = 0.0067799857627561, No Iterations 1
time step continuity errors : sum local = 7.298350167425441e+40, global = 4.226459987823389e+39, cumulative = -6.768283739874336e+40
DICPBiCGStab:  Solving for p, Initial residual = 0.008359407751435311, Final residual = 0.004855428261230036, No Iterations 1
DICPBiCGStab:  Solving for p, Initial residual = 0.005932622428132828, Final residual = 0.004641492838201506, No Iterations 1
time step continuity errors : sum local = 3.969194754388581e+40, global = -3.938837331127572e+39, cumulative = -7.162167472987094e+40
DILUPBiCGStab:  Solving for omega, Initial residual = 0.2000409081611782, Final residual = 1.012500143603702e-53, No Iterations 1
DILUPBiCGStab:  Solving for k, Initial residual = 0.1997490868450796, Final residual = 2.657190416774274e-35, No Iterations 1
PIMPLE: iteration 2
DILUPBiCGStab:  Solving for Ux, Initial residual = 0.2801057177782216, Final residual = 6.706744396003637e-07, No Iterations 5
DILUPBiCGStab:  Solving for Uy, Initial residual = 0.3146067500866748, Final residual = 6.880900854850902e-07, No Iterations 5
DICPBiCGStab:  Solving for p, Initial residual = 0.02118194887362351, Final residual = 0.008771762152781691, No Iterations 2
DICPBiCGStab:  Solving for p, Initial residual = 0.01048976979678241, Final residual = 0.005796598823399226, No Iterations 1
time step continuity errors : sum local = 4.232944805606516e+40, global = -1.294051819651975e+40, cumulative = -8.456219292639069e+40
DICPBiCGStab:  Solving for p, Initial residual = 0.009927366697592302, Final residual = 0.005371538531622154, No Iterations 1
DICPBiCGStab:  Solving for p, Initial residual = 0.004239496577144604, Final residual = 0.00291684105149084, No Iterations 1
time step continuity errors : sum local = 2.534837245469861e+40, global = -8.602886293121865e+39, cumulative = -9.316507921951255e+40
DILUPBiCGStab:  Solving for omega, Initial residual = 0.2430148621980536, Final residual = 4.041879493962015e-47, No Iterations 1
DILUPBiCGStab:  Solving for k, Initial residual = 0.199942135735631, Final residual = 4.598647014088647e-37, No Iterations 1
PIMPLE: iteration 3
DILUPBiCGStab:  Solving for Ux, Initial residual = 0.2850952465001264, Final residual = 8.563089490481034e-07, No Iterations 5
DILUPBiCGStab:  Solving for Uy, Initial residual = 0.275001700923206, Final residual = 4.168115859875373e-07, No Iterations 5
DICPBiCGStab:  Solving for p, Initial residual = 0.01043229225384491, Final residual = 0.00661204873490551, No Iterations 1
DICPBiCGStab:  Solving for p, Initial residual = 0.006135691425100517, Final residual = 0.004622183490821604, No Iterations 1
time step continuity errors : sum local = 4.208397052219376e+40, global = -8.295908227045933e+39, cumulative = -1.014609874465585e+41
DICPBiCGStab:  Solving for p, Initial residual = 0.00399743078768388, Final residual = 0.002456654996705736, No Iterations 1
DICPBiCGStab:  Solving for p, Initial residual = 0.002310943710786329, Final residual = 0.00180500368499029, No Iterations 1
time step continuity errors : sum local = 2.348102839807438e+40, global = -1.920776223861563e+39, cumulative = -1.033817636704201e+41
DILUPBiCGStab:  Solving for omega, Initial residual = 0.2067629364647036, Final residual = 3.168963876338365e-48, No Iterations 1
DILUPBiCGStab:  Solving for k, Initial residual = 0.2000222912959303, Final residual = 1.530555597914231e-37, No Iterations 1
PIMPLE: iteration 4
DILUPBiCGStab:  Solving for Ux, Initial residual = 0.2051554135173695, Final residual = 3.966691537741762e-07, No Iterations 6
DILUPBiCGStab:  Solving for Uy, Initial residual = 0.1590297026355597, Final residual = 3.953403732683766e-07, No Iterations 5
DICPBiCGStab:  Solving for p, Initial residual = 0.004719349418557159, Final residual = 0.00273700519989719, No Iterations 1
DICPBiCGStab:  Solving for p, Initial residual = 0.002881026285421186, Final residual = 0.001901465615849919, No Iterations 1
time step continuity errors : sum local = 3.534428928158421e+40, global = 1.788192365084779e+40, cumulative = -8.549984001957227e+40
DICPBiCGStab:  Solving for p, Initial residual = 0.002445774915665031, Final residual = 0.001359906287412161, No Iterations 1
DICPBiCGStab:  Solving for p, Initial residual = 0.001417123737580939, Final residual = 0.001499098828549908, No Iterations 1
time step continuity errors : sum local = 2.875019311019747e+40, global = 1.729272508973463e+40, cumulative = -6.820711492983764e+40
#0  Foam::error::printStack(Foam::Ostream&) at ??:?
#1  Foam::sigFpe::sigHandler(int) at ??:?
#2  ? in /lib/x86_64-linux-gnu/libpthread.so.0
#3  Foam::scalarProduct<double, double>::type Foam::sumProd<double>(Foam::UList<double> const&, Foam::UList<double> const&) at ??:?
#4  Foam::PBiCGStab::scalarSolve(Foam::Field<double>&, Foam::Field<double> const&, unsigned char) const at ??:?
#5  Foam::PBiCGStab::solve(Foam::Field<double>&, Foam::Field<double> const&, unsigned char) const at ??:?
#6  Foam::fvMatrix<double>::solveSegregated(Foam::dictionary const&) at ??:?
#7  Foam::fvMatrix<double>::solveSegregatedOrCoupled(Foam::dictionary const&) at ??:?
#8  Foam::fvMesh::solve(Foam::fvMatrix<double>&, Foam::dictionary const&) const at ??:?
#9  Foam::SolverPerformance<double> Foam::solve<double>(Foam::tmp<Foam::fvMatrix<double> > const&) at ??:?
#10  Foam::kOmegaSSTBase<Foam::eddyViscosity<Foam::RASModel<Foam::IncompressibleTurbulenceModel<Foam::transportModel> > > >::correct() at ??:?
#11  ? in /usr/lib/openfoam/openfoam2012/platforms/linux64GccDPInt32Opt/bin/pimpleFoam
#12  __libc_start_main in /lib/x86_64-linux-gnu/libc.so.6
#13  ? in /usr/lib/openfoam/openfoam2012/platforms/linux64GccDPInt32Opt/bin/pimpleFoam
